Circuit: * C:\Users\simo2\OneDrive - Danmarks Tekniske Universitet\Dokumenter\GitHub\ee-projekt\Calculations\BuckBoost_converter_sim\BuckBoost_P-Channel-v2switch_+analogkontrolv3.asc

Limiting rise time of source v4 to 1e-006
Limiting fall time of source v4 to 1e-006
Direct Newton iteration failed to find .op point.  (Use ".option noopiter" to skip.)
Starting Gmin stepping
Gmin = 10
Gmin = 1.07374
Gmin = 0.115292
Gmin = 0.0123794
Gmin = 0.00132923
Gmin = 0.000142725
Gmin = 1.5325e-005
Gmin = 1.6455e-006
Gmin = 1.76685e-007
Gmin = 1.89714e-008
Gmin = 2.03704e-009
Gmin = 2.18725e-010
Gmin = 2.34854e-011
Gmin = 2.52173e-012
Gmin = 2.70769e-013
Gmin = 0
Gmin stepping succeeded in finding the operating point.

Changing Tseed to 9.76562e-010
Heightened Def Con from 2.16708e-005 to 2.16748e-005
Heightened Def Con from 2.16876e-005 to 2.16916e-005
Heightened Def Con from 2.16993e-005 to 2.17023e-005
Heightened Def Con from 2.17161e-005 to 2.17191e-005
Heightened Def Con from 2.17274e-005 to 2.17314e-005
Heightened Def Con from 2.1744e-005 to 2.1747e-005
Heightened Def Con from 2.1755e-005 to 2.1759e-005
Heightened Def Con from 2.17692e-005 to 2.17722e-005
Heightened Def Con from 2.17827e-005 to 2.17867e-005
Heightened Def Con from 2.18271e-005 to 2.18301e-005
Heightened Def Con from 2.18385e-005 to 2.18425e-005
Heightened Def Con from 2.18665e-005 to 2.18705e-005
Heightened Def Con from 2.18811e-005 to 2.18841e-005
Heightened Def Con from 2.18945e-005 to 2.18985e-005
Heightened Def Con from 2.1911e-005 to 2.1915e-005
Heightened Def Con from 2.19359e-005 to 2.19429e-005
Heightened Def Con from 2.19643e-005 to 2.19703e-005
Heightened Def Con from 2.19774e-005 to 2.19814e-005
Heightened Def Con from 2.19936e-005 to 2.19966e-005
Heightened Def Con from 2.20045e-005 to 2.20085e-005
Heightened Def Con from 2.2021e-005 to 2.2024e-005
Heightened Def Con from 2.20478e-005 to 2.20518e-005
Heightened Def Con from 2.2073e-005 to 2.208e-005
Heightened Def Con from 2.21147e-005 to 2.21187e-005
Heightened Def Con from 2.21315e-005 to 2.21345e-005
Heightened Def Con from 2.21594e-005 to 2.21624e-005
Heightened Def Con from 2.21708e-005 to 2.21748e-005
Heightened Def Con from 2.21985e-005 to 2.22025e-005
Heightened Def Con from 2.22152e-005 to 2.22192e-005
Heightened Def Con from 2.22264e-005 to 2.22304e-005
Heightened Def Con from 2.22712e-005 to 2.22742e-005
Heightened Def Con from 2.22998e-005 to 2.23028e-005
Heightened Def Con from 2.23111e-005 to 2.23151e-005
Heightened Def Con from 2.23539e-005 to 2.23609e-005
Heightened Def Con from 2.23697e-005 to 2.23727e-005
Heightened Def Con from 2.23947e-005 to 2.23997e-005
Heightened Def Con from 2.24114e-005 to 2.24154e-005
Heightened Def Con from 2.24221e-005 to 2.24261e-005
Heightened Def Con from 2.24776e-005 to 2.24816e-005
Heightened Def Con from 2.24932e-005 to 2.24982e-005
Heightened Def Con from 2.25071e-005 to 2.25101e-005
Heightened Def Con from 2.25334e-005 to 2.25374e-005
Heightened Def Con from 2.25506e-005 to 2.25536e-005
Heightened Def Con from 2.25626e-005 to 2.25656e-005
Heightened Def Con from 2.25901e-005 to 2.25931e-005
Heightened Def Con from 2.26046e-005 to 2.26096e-005
Heightened Def Con from 2.26167e-005 to 2.26197e-005
Heightened Def Con from 2.26442e-005 to 2.26472e-005
Heightened Def Con from 2.26741e-005 to 2.26771e-005
Heightened Def Con from 2.26896e-005 to 2.26926e-005
Heightened Def Con from 2.27006e-005 to 2.27046e-005
Heightened Def Con from 2.27284e-005 to 2.27324e-005
Heightened Def Con from 2.27454e-005 to 2.27494e-005
Heightened Def Con from 2.2772e-005 to 2.2777e-005
Heightened Def Con from 2.27844e-005 to 2.27884e-005
Heightened Def Con from 2.28011e-005 to 2.28041e-005
Heightened Def Con from 2.28289e-005 to 2.28319e-005
Heightened Def Con from 2.28398e-005 to 2.28438e-005
Heightened Def Con from 2.28838e-005 to 2.28888e-005
Heightened Def Con from 2.28962e-005 to 2.29002e-005
Heightened Def Con from 2.29135e-005 to 2.29165e-005
Heightened Def Con from 2.29241e-005 to 2.29271e-005
Heightened Def Con from 2.29514e-005 to 2.29544e-005
Heightened Def Con from 2.29685e-005 to 2.29725e-005
Heightened Def Con from 2.29803e-005 to 2.29833e-005
Heightened Def Con from 2.30076e-005 to 2.30106e-005
Heightened Def Con from 2.30247e-005 to 2.30277e-005
Heightened Def Con from 2.30355e-005 to 2.30385e-005
Heightened Def Con from 2.30526e-005 to 2.30556e-005
Heightened Def Con from 2.30786e-005 to 2.30846e-005
Heightened Def Con from 2.31034e-005 to 2.31094e-005
Heightened Def Con from 2.31183e-005 to 2.31223e-005
Heightened Def Con from 2.31343e-005 to 2.31373e-005
Heightened Def Con from 2.31444e-005 to 2.31484e-005
Heightened Def Con from 2.31708e-005 to 2.31748e-005
Heightened Def Con from 2.31861e-005 to 2.31891e-005
Heightened Def Con from 2.31986e-005 to 2.32016e-005
Heightened Def Con from 2.32147e-005 to 2.32177e-005
Heightened Def Con from 2.32253e-005 to 2.32293e-005
Heightened Def Con from 2.3242e-005 to 2.3245e-005
Heightened Def Con from 2.32684e-005 to 2.32714e-005
Heightened Def Con from 2.32809e-005 to 2.32849e-005
Heightened Def Con from 2.32964e-005 to 2.33014e-005
Heightened Def Con from 2.33085e-005 to 2.33125e-005
Heightened Def Con from 2.33251e-005 to 2.33281e-005
Heightened Def Con from 2.33637e-005 to 2.33677e-005
Heightened Def Con from 2.3392e-005 to 2.3396e-005
Heightened Def Con from 2.34094e-005 to 2.34124e-005
Heightened Def Con from 2.34213e-005 to 2.34243e-005
Heightened Def Con from 2.34373e-005 to 2.34413e-005
Heightened Def Con from 2.34627e-005 to 2.34697e-005
Heightened Def Con from 2.34764e-005 to 2.34804e-005
Heightened Def Con from 2.34903e-005 to 2.34973e-005
Heightened Def Con from 2.35032e-005 to 2.35072e-005
Heightened Def Con from 2.35192e-005 to 2.35222e-005
Heightened Def Con from 2.35287e-005 to 2.35337e-005
Heightened Def Con from 2.35453e-005 to 2.35483e-005
Heightened Def Con from 2.35548e-005 to 2.35588e-005
Heightened Def Con from 2.3571e-005 to 2.3574e-005
Heightened Def Con from 2.3609e-005 to 2.3613e-005
Heightened Def Con from 2.36259e-005 to 2.36299e-005
Heightened Def Con from 2.36371e-005 to 2.36411e-005
Heightened Def Con from 2.36823e-005 to 2.36853e-005
Heightened Def Con from 2.37224e-005 to 2.37264e-005
Heightened Def Con from 2.37521e-005 to 2.37551e-005
Heightened Def Con from 2.37798e-005 to 2.37838e-005
Heightened Def Con from 2.38085e-005 to 2.38125e-005
Heightened Def Con from 2.38255e-005 to 2.38295e-005
Heightened Def Con from 2.38367e-005 to 2.38397e-005
Heightened Def Con from 2.38534e-005 to 2.38564e-005
Heightened Def Con from 2.38639e-005 to 2.38679e-005
Heightened Def Con from 2.38917e-005 to 2.38957e-005
Heightened Def Con from 2.39088e-005 to 2.39128e-005
Heightened Def Con from 2.39195e-005 to 2.39235e-005
Heightened Def Con from 2.39764e-005 to 2.39794e-005
Heightened Def Con from 2.40058e-005 to 2.40088e-005
Heightened Def Con from 2.4062e-005 to 2.4066e-005
Heightened Def Con from 2.40796e-005 to 2.40826e-005
Heightened Def Con from 2.40902e-005 to 2.40942e-005
Heightened Def Con from 2.41076e-005 to 2.41106e-005
Heightened Def Con from 2.41182e-005 to 2.41222e-005
Heightened Def Con from 2.41336e-005 to 2.41386e-005
Heightened Def Con from 2.4158e-005 to 2.4166e-005
Heightened Def Con from 2.41879e-005 to 2.41919e-005
Heightened Def Con from 2.42137e-005 to 2.42187e-005
Heightened Def Con from 2.42256e-005 to 2.42296e-005
Heightened Def Con from 2.42423e-005 to 2.42453e-005
Heightened Def Con from 2.4267e-005 to 2.4274e-005
Heightened Def Con from 2.4296e-005 to 2.4301e-005
Heightened Def Con from 2.43252e-005 to 2.43282e-005
Heightened Def Con from 2.43361e-005 to 2.43401e-005
Heightened Def Con from 2.4364e-005 to 2.4368e-005
Heightened Def Con from 2.43917e-005 to 2.43957e-005
Heightened Def Con from 2.44076e-005 to 2.44106e-005
Heightened Def Con from 2.44343e-005 to 2.44383e-005
Heightened Def Con from 2.44757e-005 to 2.44797e-005
Heightened Def Con from 2.44934e-005 to 2.44964e-005
Heightened Def Con from 2.45038e-005 to 2.45078e-005
Heightened Def Con from 2.45209e-005 to 2.45239e-005
Heightened Def Con from 2.45326e-005 to 2.45356e-005
Heightened Def Con from 2.45492e-005 to 2.45522e-005
Heightened Def Con from 2.46056e-005 to 2.46086e-005
Heightened Def Con from 2.46166e-005 to 2.46196e-005
Heightened Def Con from 2.46321e-005 to 2.46371e-005
Heightened Def Con from 2.4644e-005 to 2.4647e-005
Heightened Def Con from 2.46611e-005 to 2.46651e-005
Heightened Def Con from 2.4698e-005 to 2.4703e-005
Heightened Def Con from 2.47542e-005 to 2.47572e-005
Heightened Def Con from 2.47983e-005 to 2.48043e-005
Heightened Def Con from 2.48115e-005 to 2.48155e-005
Heightened Def Con from 2.48289e-005 to 2.48319e-005
Heightened Def Con from 2.48391e-005 to 2.48431e-005
Heightened Def Con from 2.48531e-005 to 2.48601e-005
Heightened Def Con from 2.48664e-005 to 2.48704e-005
Heightened Def Con from 2.49085e-005 to 2.49135e-005
Heightened Def Con from 2.49358e-005 to 2.49418e-005
Heightened Def Con from 2.49761e-005 to 2.49801e-005
Heightened Def Con from 2.49937e-005 to 2.49967e-005
Heightened Def Con from 2.50177e-005 to 2.50257e-005
Heightened Def Con from 2.5048e-005 to 2.5052e-005
Heightened Def Con from 2.50585e-005 to 2.50625e-005
Heightened Def Con from 2.50732e-005 to 2.50792e-005
Heightened Def Con from 2.50858e-005 to 2.50888e-005
Heightened Def Con from 2.51111e-005 to 2.51151e-005
Heightened Def Con from 2.51278e-005 to 2.51318e-005
Heightened Def Con from 2.51394e-005 to 2.51424e-005
Heightened Def Con from 2.51549e-005 to 2.51579e-005
Heightened Def Con from 2.51649e-005 to 2.51689e-005
Heightened Def Con from 2.51817e-005 to 2.51847e-005
Heightened Def Con from 2.51917e-005 to 2.51947e-005
Heightened Def Con from 2.52039e-005 to 2.52119e-005
Heightened Def Con from 2.52312e-005 to 2.52372e-005
Heightened Def Con from 2.5243e-005 to 2.5247e-005
Heightened Def Con from 2.52818e-005 to 2.52868e-005
Heightened Def Con from 2.52959e-005 to 2.52999e-005
Heightened Def Con from 2.53376e-005 to 2.53436e-005
Heightened Def Con from 2.53502e-005 to 2.53542e-005
Heightened Def Con from 2.5366e-005 to 2.5371e-005
Heightened Def Con from 2.53775e-005 to 2.53815e-005
Heightened Def Con from 2.5392e-005 to 2.5398e-005
Heightened Def Con from 2.54595e-005 to 2.54625e-005
Heightened Def Con from 2.54775e-005 to 2.54805e-005
Heightened Def Con from 2.54883e-005 to 2.54923e-005
Heightened Def Con from 2.55056e-005 to 2.55096e-005
Heightened Def Con from 2.5516e-005 to 2.552e-005
Heightened Def Con from 2.55432e-005 to 2.55472e-005
Heightened Def Con from 2.55594e-005 to 2.55644e-005
Heightened Def Con from 2.55975e-005 to 2.56015e-005
Heightened Def Con from 2.5615e-005 to 2.5618e-005
Heightened Def Con from 2.56264e-005 to 2.56294e-005
Heightened Def Con from 2.56397e-005 to 2.56427e-005
Heightened Def Con from 2.5653e-005 to 2.5656e-005
Heightened Def Con from 2.56695e-005 to 2.56735e-005
Heightened Def Con from 2.56798e-005 to 2.56838e-005
Heightened Def Con from 2.56964e-005 to 2.56994e-005
Heightened Def Con from 2.57062e-005 to 2.57102e-005
Heightened Def Con from 2.57332e-005 to 2.57372e-005
Heightened Def Con from 2.57505e-005 to 2.57535e-005
Heightened Def Con from 2.57608e-005 to 2.57648e-005
Heightened Def Con from 2.5778e-005 to 2.5781e-005
Heightened Def Con from 2.5788e-005 to 2.5792e-005
Heightened Def Con from 2.58328e-005 to 2.58368e-005
Heightened Def Con from 2.58618e-005 to 2.58648e-005
Heightened Def Con from 2.58721e-005 to 2.58761e-005
Heightened Def Con from 2.59001e-005 to 2.59041e-005
Heightened Def Con from 2.59442e-005 to 2.59502e-005
Heightened Def Con from 2.59754e-005 to 2.59784e-005
Heightened Def Con from 2.59989e-005 to 2.60069e-005
Heightened Def Con from 2.60589e-005 to 2.60619e-005
Heightened Def Con from 2.60696e-005 to 2.60736e-005
Heightened Def Con from 2.60878e-005 to 2.60908e-005
Heightened Def Con from 2.61255e-005 to 2.61305e-005
Heightened Def Con from 2.61436e-005 to 2.61466e-005
Heightened Def Con from 2.61704e-005 to 2.61744e-005
Heightened Def Con from 2.61993e-005 to 2.62023e-005
Heightened Def Con from 2.62096e-005 to 2.62136e-005
Heightened Def Con from 2.62525e-005 to 2.62565e-005
Heightened Def Con from 2.6285e-005 to 2.6288e-005
Heightened Def Con from 2.6295e-005 to 2.6299e-005
Heightened Def Con from 2.63127e-005 to 2.63157e-005
Heightened Def Con from 2.63235e-005 to 2.63265e-005
Heightened Def Con from 2.63368e-005 to 2.63448e-005
Heightened Def Con from 2.63674e-005 to 2.63704e-005
Heightened Def Con from 2.64058e-005 to 2.64098e-005
Heightened Def Con from 2.64342e-005 to 2.64382e-005
Heightened Def Con from 2.64629e-005 to 2.64669e-005
Heightened Def Con from 2.64915e-005 to 2.64955e-005
Heightened Def Con from 2.65198e-005 to 2.65238e-005
Heightened Def Con from 2.65771e-005 to 2.65811e-005
Heightened Def Con from 2.6595e-005 to 2.6599e-005
Heightened Def Con from 2.66073e-005 to 2.66103e-005
Heightened Def Con from 2.66337e-005 to 2.66367e-005
Heightened Def Con from 2.66605e-005 to 2.66645e-005
Heightened Def Con from 2.6689e-005 to 2.6692e-005
Heightened Def Con from 2.67319e-005 to 2.67389e-005
Heightened Def Con from 2.67449e-005 to 2.67489e-005
Heightened Def Con from 2.67723e-005 to 2.67763e-005
Heightened Def Con from 2.68001e-005 to 2.68041e-005
Heightened Def Con from 2.68283e-005 to 2.68323e-005
Heightened Def Con from 2.68583e-005 to 2.68613e-005
Heightened Def Con from 2.6885e-005 to 2.6889e-005
Heightened Def Con from 2.6914e-005 to 2.6917e-005
Heightened Def Con from 2.6932e-005 to 2.6935e-005
Heightened Def Con from 2.69588e-005 to 2.69628e-005
Heightened Def Con from 2.69986e-005 to 2.70026e-005
Heightened Def Con from 2.70176e-005 to 2.70206e-005
Heightened Def Con from 2.70558e-005 to 2.70598e-005
Heightened Def Con from 2.70741e-005 to 2.70771e-005
Heightened Def Con from 2.7084e-005 to 2.7088e-005
Heightened Def Con from 2.71131e-005 to 2.71161e-005
Heightened Def Con from 2.71304e-005 to 2.71334e-005
Heightened Def Con from 2.71406e-005 to 2.71436e-005
Heightened Def Con from 2.71543e-005 to 2.71613e-005
Heightened Def Con from 2.71674e-005 to 2.71714e-005
Heightened Def Con from 2.7211e-005 to 2.7215e-005
Heightened Def Con from 2.72507e-005 to 2.72547e-005
Heightened Def Con from 2.72973e-005 to 2.73013e-005
Heightened Def Con from 2.73362e-005 to 2.73402e-005
Heightened Def Con from 2.73653e-005 to 2.73683e-005
Heightened Def Con from 2.74082e-005 to 2.74152e-005
Heightened Def Con from 2.74219e-005 to 2.74259e-005
Heightened Def Con from 2.74391e-005 to 2.74421e-005
Heightened Def Con from 2.7464e-005 to 2.7471e-005
Heightened Def Con from 2.75199e-005 to 2.75269e-005
Heightened Def Con from 2.75513e-005 to 2.75543e-005
Heightened Def Con from 2.759e-005 to 2.7594e-005
Heightened Def Con from 2.76203e-005 to 2.76233e-005
Heightened Def Con from 2.76476e-005 to 2.76506e-005
Heightened Def Con from 2.76758e-005 to 2.76798e-005
Heightened Def Con from 2.77492e-005 to 2.77552e-005
Heightened Def Con from 2.77624e-005 to 2.77664e-005
Heightened Def Con from 2.78052e-005 to 2.78092e-005
Heightened Def Con from 2.7821e-005 to 2.7824e-005
Heightened Def Con from 2.78463e-005 to 2.78503e-005
Heightened Def Con from 2.78641e-005 to 2.78671e-005
Heightened Def Con from 2.792e-005 to 2.7924e-005
Heightened Def Con from 2.79592e-005 to 2.79632e-005
Heightened Def Con from 2.79777e-005 to 2.79807e-005
Heightened Def Con from 2.79877e-005 to 2.79917e-005
Heightened Def Con from 2.80156e-005 to 2.80196e-005
Heightened Def Con from 2.80446e-005 to 2.80476e-005
Heightened Def Con from 2.80618e-005 to 2.80648e-005
Heightened Def Con from 2.8072e-005 to 2.8076e-005
Heightened Def Con from 2.80998e-005 to 2.81038e-005
Heightened Def Con from 2.81567e-005 to 2.81607e-005
Heightened Def Con from 2.81749e-005 to 2.81779e-005
Heightened Def Con from 2.81852e-005 to 2.81892e-005
Heightened Def Con from 2.82129e-005 to 2.82169e-005
Heightened Def Con from 2.82279e-005 to 2.82349e-005
Heightened Def Con from 2.82555e-005 to 2.82585e-005
Heightened Def Con from 2.82822e-005 to 2.82902e-005
Heightened Def Con from 2.82961e-005 to 2.83001e-005
Heightened Def Con from 2.8313e-005 to 2.8316e-005
Heightened Def Con from 2.83228e-005 to 2.83268e-005
Heightened Def Con from 2.835e-005 to 2.8354e-005
Heightened Def Con from 2.83676e-005 to 2.83716e-005
Heightened Def Con from 2.8378e-005 to 2.8381e-005
Heightened Def Con from 2.84923e-005 to 2.84963e-005
Heightened Def Con from 2.85087e-005 to 2.85147e-005
Heightened Def Con from 2.85205e-005 to 2.85245e-005
Heightened Def Con from 2.85375e-005 to 2.85415e-005
Heightened Def Con from 2.85472e-005 to 2.85512e-005
Heightened Def Con from 2.85731e-005 to 2.85781e-005
Heightened Def Con from 2.85904e-005 to 2.85944e-005
Heightened Def Con from 2.86011e-005 to 2.86041e-005
Heightened Def Con from 2.86556e-005 to 2.86596e-005
Heightened Def Con from 2.86991e-005 to 2.87061e-005
Heightened Def Con from 2.87279e-005 to 2.87349e-005
Heightened Def Con from 2.87414e-005 to 2.87444e-005
Heightened Def Con from 2.87973e-005 to 2.88003e-005
Heightened Def Con from 2.88156e-005 to 2.88186e-005
Heightened Def Con from 2.88258e-005 to 2.88298e-005
Heightened Def Con from 2.88432e-005 to 2.88472e-005
Heightened Def Con from 2.88996e-005 to 2.89026e-005
Heightened Def Con from 2.89108e-005 to 2.89138e-005
Heightened Def Con from 2.89569e-005 to 2.89599e-005
Heightened Def Con from 2.89857e-005 to 2.89887e-005
Heightened Def Con from 2.89965e-005 to 2.89995e-005
Heightened Def Con from 2.90683e-005 to 2.90763e-005
Heightened Def Con from 2.91004e-005 to 2.91034e-005
Heightened Def Con from 2.91404e-005 to 2.91434e-005
Heightened Def Con from 2.9169e-005 to 2.9172e-005
Heightened Def Con from 2.91864e-005 to 2.91894e-005
Heightened Def Con from 2.92248e-005 to 2.92288e-005
Heightened Def Con from 2.92428e-005 to 2.92458e-005
Heightened Def Con from 2.92822e-005 to 2.92852e-005
Heightened Def Con from 2.93384e-005 to 2.93424e-005
Heightened Def Con from 2.93572e-005 to 2.93602e-005
Heightened Def Con from 2.93826e-005 to 2.93886e-005
Heightened Def Con from 2.94127e-005 to 2.94157e-005
Heightened Def Con from 2.94414e-005 to 2.94444e-005
Heightened Def Con from 2.94675e-005 to 2.94725e-005
Heightened Def Con from 2.94794e-005 to 2.94834e-005
Heightened Def Con from 2.94966e-005 to 2.95006e-005
Heightened Def Con from 2.95494e-005 to 2.95534e-005
Heightened Def Con from 2.95634e-005 to 2.95674e-005
Heightened Def Con from 2.96062e-005 to 2.96142e-005
Heightened Def Con from 2.96375e-005 to 2.96415e-005
Heightened Def Con from 2.9666e-005 to 2.9669e-005
Heightened Def Con from 2.96917e-005 to 2.96987e-005
Heightened Def Con from 2.97044e-005 to 2.97084e-005
Heightened Def Con from 2.97461e-005 to 2.97541e-005
Heightened Def Con from 2.97597e-005 to 2.97637e-005
Heightened Def Con from 2.9777e-005 to 2.978e-005
Heightened Def Con from 2.98332e-005 to 2.98372e-005
Heightened Def Con from 2.98437e-005 to 2.98477e-005
Heightened Def Con from 2.98862e-005 to 2.98942e-005
Heightened Def Con from 2.99149e-005 to 2.99219e-005
Heightened Def Con from 2.99282e-005 to 2.99322e-005
Heightened Def Con from 2.99419e-005 to 2.99459e-005
Heightened Def Con from 3.00013e-005 to 3.00043e-005
Heightened Def Con from 3.00393e-005 to 3.00443e-005
Heightened Def Con from 3.00576e-005 to 3.00606e-005
Heightened Def Con from 3.00691e-005 to 3.00721e-005
Heightened Def Con from 3.00949e-005 to 3.00989e-005
Heightened Def Con from 3.01706e-005 to 3.01736e-005
Heightened Def Con from 3.0181e-005 to 3.0185e-005
Heightened Def Con from 3.02085e-005 to 3.02135e-005
Heightened Def Con from 3.02265e-005 to 3.02295e-005
Heightened Def Con from 3.02361e-005 to 3.02401e-005
Heightened Def Con from 3.02535e-005 to 3.02565e-005
Heightened Def Con from 3.02679e-005 to 3.02709e-005
Heightened Def Con from 3.02783e-005 to 3.02813e-005
Heightened Def Con from 3.03191e-005 to 3.03231e-005
Heightened Def Con from 3.03663e-005 to 3.03693e-005
Heightened Def Con from 3.03763e-005 to 3.03803e-005
Heightened Def Con from 3.04043e-005 to 3.04073e-005
Heightened Def Con from 3.04325e-005 to 3.04365e-005
Heightened Def Con from 3.04589e-005 to 3.04639e-005
Heightened Def Con from 3.0474e-005 to 3.0481e-005
Heightened Def Con from 3.05279e-005 to 3.05349e-005
Heightened Def Con from 3.05406e-005 to 3.05436e-005
Heightened Def Con from 3.05678e-005 to 3.05718e-005
Heightened Def Con from 3.05855e-005 to 3.05885e-005
Heightened Def Con from 3.05952e-005 to 3.05992e-005
Heightened Def Con from 3.06128e-005 to 3.06158e-005
Heightened Def Con from 3.06406e-005 to 3.06436e-005
Heightened Def Con from 3.06627e-005 to 3.06727e-005
Heightened Def Con from 3.06899e-005 to 3.06979e-005
Heightened Def Con from 3.07438e-005 to 3.07508e-005
Heightened Def Con from 3.07863e-005 to 3.07893e-005
Heightened Def Con from 3.08136e-005 to 3.08176e-005
Heightened Def Con from 3.08321e-005 to 3.08351e-005
Heightened Def Con from 3.08423e-005 to 3.08453e-005
Heightened Def Con from 3.08988e-005 to 3.09018e-005
Heightened Def Con from 3.09173e-005 to 3.09203e-005
Heightened Def Con from 3.09428e-005 to 3.09498e-005
Heightened Def Con from 3.09558e-005 to 3.09598e-005
Heightened Def Con from 3.09982e-005 to 3.10001e-005
Heightened Def Con from 3.10022e-005 to 3.10052e-005
Heightened Def Con from 3.10698e-005 to 3.10728e-005
Heightened Def Con from 3.10848e-005 to 3.10918e-005
Heightened Def Con from 3.11446e-005 to 3.11486e-005
Heightened Def Con from 3.11555e-005 to 3.11585e-005
Heightened Def Con from 3.11744e-005 to 3.11774e-005
Heightened Def Con from 3.12019e-005 to 3.12049e-005
Heightened Def Con from 3.12307e-005 to 3.12337e-005
Heightened Def Con from 3.12417e-005 to 3.12447e-005
Heightened Def Con from 3.1269e-005 to 3.1272e-005
Heightened Def Con from 3.1285e-005 to 3.1291e-005
Heightened Def Con from 3.13432e-005 to 3.13472e-005
Heightened Def Con from 3.13667e-005 to 3.13757e-005
Heightened Def Con from 3.13805e-005 to 3.13845e-005
Heightened Def Con from 3.13956e-005 to 3.14006e-005
Heightened Def Con from 3.14057e-005 to 3.14097e-005
Heightened Def Con from 3.14863e-005 to 3.14913e-005
Heightened Def Con from 3.15616e-005 to 3.15646e-005
Heightened Def Con from 3.15719e-005 to 3.15759e-005
Heightened Def Con from 3.16e-005 to 3.1604e-005
Heightened Def Con from 3.16283e-005 to 3.16323e-005
Heightened Def Con from 3.16716e-005 to 3.16786e-005
Heightened Def Con from 3.16851e-005 to 3.16891e-005
Heightened Def Con from 3.17027e-005 to 3.17057e-005
Heightened Def Con from 3.17261e-005 to 3.17301e-005
Heightened Def Con from 3.17395e-005 to 3.17435e-005
Heightened Def Con from 3.17531e-005 to 3.17611e-005
Heightened Def Con from 3.17819e-005 to 3.17869e-005
Heightened Def Con from 3.18101e-005 to 3.18141e-005
Heightened Def Con from 3.18201e-005 to 3.18241e-005
Heightened Def Con from 3.18759e-005 to 3.18799e-005
Heightened Def Con from 3.1905e-005 to 3.1908e-005
Heightened Def Con from 3.19227e-005 to 3.19257e-005
Heightened Def Con from 3.19331e-005 to 3.19371e-005
Heightened Def Con from 3.19507e-005 to 3.19547e-005
Heightened Def Con from 3.20054e-005 to 3.20104e-005
Heightened Def Con from 3.20332e-005 to 3.20362e-005
Heightened Def Con from 3.20757e-005 to 3.20787e-005
Heightened Def Con from 3.20905e-005 to 3.20965e-005
Heightened Def Con from 3.2118e-005 to 3.2125e-005
Heightened Def Con from 3.21318e-005 to 3.21358e-005
Heightened Def Con from 3.2159e-005 to 3.2163e-005
Heightened Def Con from 3.2187e-005 to 3.2191e-005
Heightened Def Con from 3.2216e-005 to 3.2219e-005
Heightened Def Con from 3.22617e-005 to 3.22657e-005
Heightened Def Con from 3.22732e-005 to 3.22772e-005
Heightened Def Con from 3.22909e-005 to 3.22939e-005
Heightened Def Con from 3.23018e-005 to 3.23048e-005
Heightened Def Con from 3.2319e-005 to 3.2322e-005
Heightened Def Con from 3.23299e-005 to 3.23329e-005
Heightened Def Con from 3.2357e-005 to 3.2361e-005
Heightened Def Con from 3.23736e-005 to 3.23786e-005
Heightened Def Con from 3.23852e-005 to 3.23892e-005
Heightened Def Con from 3.24137e-005 to 3.24167e-005
Heightened Def Con from 3.24557e-005 to 3.24617e-005
Heightened Def Con from 3.26046e-005 to 3.26076e-005
Heightened Def Con from 3.26158e-005 to 3.26198e-005
Heightened Def Con from 3.26446e-005 to 3.26486e-005
Heightened Def Con from 3.26855e-005 to 3.26895e-005
Heightened Def Con from 3.27154e-005 to 3.27214e-005
Heightened Def Con from 3.27552e-005 to 3.27592e-005
Heightened Def Con from 3.27727e-005 to 3.27757e-005
Heightened Def Con from 3.27831e-005 to 3.27871e-005
Heightened Def Con from 3.27993e-005 to 3.28043e-005
Heightened Def Con from 3.28165e-005 to 3.28195e-005
Heightened Def Con from 3.28273e-005 to 3.28303e-005
Heightened Def Con from 3.28372e-005 to 3.28412e-005
Heightened Def Con from 3.28537e-005 to 3.28577e-005
Heightened Def Con from 3.28809e-005 to 3.28839e-005
Heightened Def Con from 3.28912e-005 to 3.28952e-005
Heightened Def Con from 3.29188e-005 to 3.29228e-005
Heightened Def Con from 3.2934e-005 to 3.294e-005
Heightened Def Con from 3.29475e-005 to 3.29505e-005
Heightened Def Con from 3.29611e-005 to 3.29671e-005
Heightened Def Con from 3.29906e-005 to 3.29936e-005
Heightened Def Con from 3.30006e-005 to 3.30046e-005
Heightened Def Con from 3.30146e-005 to 3.30216e-005
Heightened Def Con from 3.30276e-005 to 3.30316e-005
Heightened Def Con from 3.3069e-005 to 3.3075e-005
Heightened Def Con from 3.30818e-005 to 3.30858e-005
Heightened Def Con from 3.31267e-005 to 3.31297e-005
Heightened Def Con from 3.31385e-005 to 3.31415e-005
Heightened Def Con from 3.31523e-005 to 3.31593e-005
Heightened Def Con from 3.31659e-005 to 3.31699e-005
Heightened Def Con from 3.31822e-005 to 3.31852e-005
Heightened Def Con from 3.32077e-005 to 3.32137e-005
Heightened Def Con from 3.32204e-005 to 3.32244e-005
Heightened Def Con from 3.32353e-005 to 3.32413e-005
Heightened Def Con from 3.32477e-005 to 3.32517e-005
Heightened Def Con from 3.32638e-005 to 3.32668e-005
Heightened Def Con from 3.33335e-005 to 3.33365e-005
Heightened Def Con from 3.3349e-005 to 3.3352e-005
Heightened Def Con from 3.33596e-005 to 3.33636e-005
Heightened Def Con from 3.33765e-005 to 3.33805e-005
Heightened Def Con from 3.33883e-005 to 3.33913e-005
Heightened Def Con from 3.34327e-005 to 3.34367e-005
Heightened Def Con from 3.34457e-005 to 3.34487e-005
Heightened Def Con from 3.34724e-005 to 3.34764e-005
Heightened Def Con from 3.35006e-005 to 3.35046e-005
Heightened Def Con from 3.35573e-005 to 3.35613e-005
Heightened Def Con from 3.3602e-005 to 3.3607e-005
Heightened Def Con from 3.36318e-005 to 3.36358e-005
Heightened Def Con from 3.36431e-005 to 3.36471e-005
Heightened Def Con from 3.36888e-005 to 3.36918e-005
Heightened Def Con from 3.37592e-005 to 3.37622e-005
Heightened Def Con from 3.38164e-005 to 3.38204e-005
Heightened Def Con from 3.38452e-005 to 3.38492e-005
Heightened Def Con from 3.38896e-005 to 3.38946e-005
Heightened Def Con from 3.39026e-005 to 3.39066e-005
Heightened Def Con from 3.39305e-005 to 3.39335e-005
Heightened Def Con from 3.39878e-005 to 3.39918e-005
Heightened Def Con from 3.40312e-005 to 3.40382e-005
Heightened Def Con from 3.4045e-005 to 3.4048e-005
Heightened Def Con from 3.40883e-005 to 3.40943e-005
Heightened Def Con from 3.4119e-005 to 3.4122e-005
Heightened Def Con from 3.413e-005 to 3.4134e-005
Heightened Def Con from 3.41451e-005 to 3.41511e-005
Heightened Def Con from 3.41856e-005 to 3.41896e-005
Heightened Def Con from 3.42025e-005 to 3.42065e-005
Heightened Def Con from 3.42306e-005 to 3.42336e-005
Heightened Def Con from 3.42418e-005 to 3.42458e-005
Heightened Def Con from 3.42589e-005 to 3.42619e-005
Heightened Def Con from 3.42978e-005 to 3.43008e-005
Heightened Def Con from 3.43558e-005 to 3.43598e-005
Heightened Def Con from 3.43844e-005 to 3.43884e-005
Heightened Def Con from 3.43992e-005 to 3.44022e-005
Heightened Def Con from 3.44127e-005 to 3.44167e-005
Heightened Def Con from 3.44294e-005 to 3.44324e-005
Heightened Def Con from 3.44578e-005 to 3.44608e-005
Heightened Def Con from 3.44834e-005 to 3.44894e-005
Heightened Def Con from 3.44971e-005 to 3.45011e-005
Heightened Def Con from 3.4513e-005 to 3.4517e-005
Heightened Def Con from 3.45245e-005 to 3.45275e-005
Heightened Def Con from 3.45806e-005 to 3.45846e-005
Heightened Def Con from 3.46092e-005 to 3.46132e-005
Heightened Def Con from 3.46262e-005 to 3.46292e-005
Heightened Def Con from 3.4637e-005 to 3.4641e-005
Heightened Def Con from 3.46648e-005 to 3.46688e-005
Heightened Def Con from 3.46796e-005 to 3.46856e-005
Heightened Def Con from 3.47093e-005 to 3.47123e-005
Heightened Def Con from 3.47362e-005 to 3.47412e-005
Heightened Def Con from 3.47625e-005 to 3.47665e-005
Heightened Def Con from 3.47767e-005 to 3.47807e-005
Heightened Def Con from 3.4794e-005 to 3.4797e-005
Heightened Def Con from 3.48054e-005 to 3.48084e-005
Heightened Def Con from 3.4832e-005 to 3.4836e-005
Heightened Def Con from 3.48603e-005 to 3.48643e-005
Heightened Def Con from 3.48772e-005 to 3.48802e-005
Heightened Def Con from 3.48908e-005 to 3.48938e-005
Heightened Def Con from 3.49032e-005 to 3.49082e-005
Heightened Def Con from 3.49159e-005 to 3.49199e-005
Heightened Def Con from 3.49437e-005 to 3.49467e-005
Heightened Def Con from 3.4971e-005 to 3.4975e-005
Heightened Def Con from 3.50156e-005 to 3.50196e-005
Heightened Def Con from 3.50269e-005 to 3.50309e-005
Heightened Def Con from 3.50546e-005 to 3.50586e-005
Heightened Def Con from 3.50818e-005 to 3.50868e-005
Heightened Def Con from 3.51376e-005 to 3.51406e-005
Heightened Def Con from 3.51554e-005 to 3.51584e-005
Heightened Def Con from 3.51944e-005 to 3.51984e-005
Heightened Def Con from 3.52104e-005 to 3.52154e-005
Heightened Def Con from 3.52227e-005 to 3.52267e-005
Heightened Def Con from 3.52391e-005 to 3.52421e-005
Heightened Def Con from 3.52663e-005 to 3.52703e-005
Heightened Def Con from 3.52777e-005 to 3.52817e-005
Heightened Def Con from 3.53204e-005 to 3.53264e-005
Heightened Def Con from 3.53342e-005 to 3.53372e-005
Heightened Def Con from 3.53765e-005 to 3.53825e-005
Heightened Def Con from 3.54055e-005 to 3.54105e-005
Heightened Def Con from 3.54304e-005 to 3.54384e-005
Heightened Def Con from 3.54602e-005 to 3.54632e-005
Heightened Def Con from 3.54711e-005 to 3.54751e-005
Heightened Def Con from 3.5487e-005 to 3.5491e-005
Heightened Def Con from 3.55146e-005 to 3.55176e-005
Heightened Def Con from 3.55419e-005 to 3.55459e-005
Heightened Def Con from 3.5554e-005 to 3.5558e-005
Heightened Def Con from 3.56111e-005 to 3.56141e-005
Heightened Def Con from 3.56272e-005 to 3.56312e-005
Heightened Def Con from 3.56397e-005 to 3.56427e-005
Heightened Def Con from 3.5667e-005 to 3.5671e-005
Heightened Def Con from 3.56843e-005 to 3.56873e-005
Heightened Def Con from 3.56952e-005 to 3.56992e-005
Heightened Def Con from 3.57103e-005 to 3.57153e-005
Heightened Def Con from 3.57376e-005 to 3.57436e-005
Heightened Def Con from 3.57655e-005 to 3.57705e-005
Heightened Def Con from 3.5853e-005 to 3.5856e-005
Heightened Def Con from 3.58793e-005 to 3.58863e-005
Heightened Def Con from 3.59102e-005 to 3.59132e-005
Heightened Def Con from 3.59218e-005 to 3.59258e-005
Heightened Def Con from 3.59378e-005 to 3.59418e-005
Heightened Def Con from 3.59496e-005 to 3.59536e-005
Heightened Def Con from 3.59773e-005 to 3.59813e-005
Heightened Def Con from 3.60049e-005 to 3.60089e-005
Heightened Def Con from 3.60216e-005 to 3.60246e-005
Heightened Def Con from 3.60334e-005 to 3.60364e-005
Heightened Def Con from 3.60606e-005 to 3.60646e-005
Heightened Def Con from 3.60755e-005 to 3.60805e-005
Heightened Def Con from 3.6105e-005 to 3.6108e-005
Heightened Def Con from 3.61165e-005 to 3.61205e-005
Heightened Def Con from 3.61331e-005 to 3.61361e-005
Heightened Def Con from 3.61444e-005 to 3.61484e-005
Heightened Def Con from 3.61587e-005 to 3.61647e-005
Heightened Def Con from 3.61865e-005 to 3.61915e-005
Heightened Def Con from 3.62134e-005 to 3.62204e-005
Heightened Def Con from 3.62272e-005 to 3.62312e-005
Heightened Def Con from 3.62714e-005 to 3.62744e-005
Heightened Def Con from 3.62829e-005 to 3.62869e-005
Heightened Def Con from 3.62978e-005 to 3.63038e-005
Heightened Def Con from 3.6313e-005 to 3.6316e-005
Heightened Def Con from 3.63549e-005 to 3.63589e-005
Heightened Def Con from 3.63959e-005 to 3.63999e-005
Heightened Def Con from 3.64242e-005 to 3.64282e-005
Heightened Def Con from 3.64816e-005 to 3.64856e-005
Heightened Def Con from 3.64985e-005 to 3.65015e-005
Heightened Def Con from 3.65101e-005 to 3.65141e-005
Heightened Def Con from 3.65265e-005 to 3.65305e-005
Heightened Def Con from 3.65388e-005 to 3.65418e-005
Heightened Def Con from 3.65826e-005 to 3.65856e-005
Heightened Def Con from 3.66089e-005 to 3.66149e-005
Heightened Def Con from 3.66395e-005 to 3.66425e-005
Heightened Def Con from 3.66656e-005 to 3.66726e-005
Heightened Def Con from 3.66963e-005 to 3.67003e-005
Heightened Def Con from 3.67243e-005 to 3.67273e-005
Heightened Def Con from 3.67366e-005 to 3.67396e-005
Heightened Def Con from 3.68225e-005 to 3.68265e-005
Heightened Def Con from 3.68381e-005 to 3.68431e-005
Heightened Def Con from 3.68509e-005 to 3.68559e-005
Heightened Def Con from 3.68921e-005 to 3.68991e-005
Heightened Def Con from 3.69218e-005 to 3.69258e-005
Heightened Def Con from 3.69334e-005 to 3.69374e-005
Heightened Def Con from 3.6961e-005 to 3.6965e-005
Heightened Def Con from 3.70061e-005 to 3.70091e-005
Heightened Def Con from 3.70346e-005 to 3.70376e-005
Heightened Def Con from 3.70464e-005 to 3.70494e-005
Heightened Def Con from 3.70632e-005 to 3.70662e-005
Heightened Def Con from 3.70747e-005 to 3.70787e-005
Heightened Def Con from 3.70911e-005 to 3.70941e-005
Heightened Def Con from 3.71087e-005 to 3.71117e-005
Heightened Def Con from 3.71303e-005 to 3.71343e-005
Heightened Def Con from 3.71459e-005 to 3.71499e-005
Heightened Def Con from 3.71853e-005 to 3.71903e-005
Heightened Def Con from 3.72298e-005 to 3.72328e-005
Heightened Def Con from 3.72999e-005 to 3.73039e-005
Heightened Def Con from 3.7317e-005 to 3.7321e-005
Heightened Def Con from 3.73287e-005 to 3.73327e-005
Heightened Def Con from 3.73452e-005 to 3.73492e-005
Heightened Def Con from 3.73566e-005 to 3.73606e-005
Heightened Def Con from 3.73727e-005 to 3.73757e-005
Heightened Def Con from 3.74881e-005 to 3.74911e-005
Heightened Def Con from 3.75173e-005 to 3.75203e-005
Heightened Def Con from 3.75756e-005 to 3.75796e-005
Heightened Def Con from 3.75876e-005 to 3.75916e-005
Heightened Def Con from 3.76043e-005 to 3.76073e-005
Heightened Def Con from 3.7616e-005 to 3.762e-005
Heightened Def Con from 3.76439e-005 to 3.76479e-005
Heightened Def Con from 3.7672e-005 to 3.7676e-005
Heightened Def Con from 3.76885e-005 to 3.76925e-005
Heightened Def Con from 3.77574e-005 to 3.77614e-005
Heightened Def Con from 3.78738e-005 to 3.78778e-005
Heightened Def Con from 3.78885e-005 to 3.78925e-005
Heightened Def Con from 3.79024e-005 to 3.79054e-005
Heightened Def Con from 3.79305e-005 to 3.79345e-005
Heightened Def Con from 3.79589e-005 to 3.79629e-005
Heightened Def Con from 3.8004e-005 to 3.8007e-005
Heightened Def Con from 3.80153e-005 to 3.80193e-005
Heightened Def Con from 3.8044e-005 to 3.8047e-005
Heightened Def Con from 3.80736e-005 to 3.80766e-005
Heightened Def Con from 3.81294e-005 to 3.81324e-005
Heightened Def Con from 3.81878e-005 to 3.81918e-005
Heightened Def Con from 3.82058e-005 to 3.82088e-005
Heightened Def Con from 3.82318e-005 to 3.82368e-005
Heightened Def Con from 3.82744e-005 to 3.82774e-005
Heightened Def Con from 3.84061e-005 to 3.84111e-005
Heightened Def Con from 3.8465e-005 to 3.8468e-005
Heightened Def Con from 3.84942e-005 to 3.84972e-005
Heightened Def Con from 3.85075e-005 to 3.85105e-005
Heightened Def Con from 3.85217e-005 to 3.85257e-005
Heightened Def Con from 3.85343e-005 to 3.85383e-005
Heightened Def Con from 3.85497e-005 to 3.85537e-005
Heightened Def Con from 3.85613e-005 to 3.85653e-005
Heightened Def Con from 3.85887e-005 to 3.85927e-005
Heightened Def Con from 3.86166e-005 to 3.86196e-005
Heightened Def Con from 3.8631e-005 to 3.8637e-005
Heightened Def Con from 3.86606e-005 to 3.86646e-005
Heightened Def Con from 3.86722e-005 to 3.86762e-005
Heightened Def Con from 3.86881e-005 to 3.86911e-005
Heightened Def Con from 3.86994e-005 to 3.87034e-005
Heightened Def Con from 3.87154e-005 to 3.87184e-005
Heightened Def Con from 3.87431e-005 to 3.87461e-005
Heightened Def Con from 3.87549e-005 to 3.87589e-005
Heightened Def Con from 3.87642e-005 to 3.87672e-005
Heightened Def Con from 3.87814e-005 to 3.87864e-005
Heightened Def Con from 3.87976e-005 to 3.88006e-005
Heightened Def Con from 3.88087e-005 to 3.88127e-005
Heightened Def Con from 3.88234e-005 to 3.88304e-005
Heightened Def Con from 3.88359e-005 to 3.88389e-005
Heightened Def Con from 3.88543e-005 to 3.88573e-005
Heightened Def Con from 3.88898e-005 to 3.88938e-005
Heightened Def Con from 3.89183e-005 to 3.89223e-005
Heightened Def Con from 3.8935e-005 to 3.8938e-005
Heightened Def Con from 3.89459e-005 to 3.89499e-005
Heightened Def Con from 3.89621e-005 to 3.89661e-005
Heightened Def Con from 3.89732e-005 to 3.89762e-005
Heightened Def Con from 3.9001e-005 to 3.9004e-005
Heightened Def Con from 4.16049e-005 to 4.16089e-005
Heightened Def Con from 4.16339e-005 to 4.16379e-005
Heightened Def Con from 4.16509e-005 to 4.16549e-005
Heightened Def Con from 4.17203e-005 to 4.17243e-005
Heightened Def Con from 4.17665e-005 to 4.17695e-005
Heightened Def Con from 4.17781e-005 to 4.17821e-005
Heightened Def Con from 4.17931e-005 to 4.17991e-005
Heightened Def Con from 4.18488e-005 to 4.18518e-005
Heightened Def Con from 4.18626e-005 to 4.18666e-005
Heightened Def Con from 4.18911e-005 to 4.18941e-005
Heightened Def Con from 4.192e-005 to 4.1923e-005
Heightened Def Con from 4.19346e-005 to 4.19406e-005
Heightened Def Con from 4.19644e-005 to 4.19684e-005
Heightened Def Con from 4.19891e-005 to 4.19961e-005
Heightened Def Con from 4.20027e-005 to 4.20067e-005
Heightened Def Con from 4.20189e-005 to 4.20219e-005
Heightened Def Con from 4.20451e-005 to 4.20481e-005
Heightened Def Con from 4.20559e-005 to 4.20599e-005
Heightened Def Con from 4.20724e-005 to 4.20754e-005
Heightened Def Con from 4.2129e-005 to 4.2132e-005
Heightened Def Con from 4.21404e-005 to 4.21444e-005
Heightened Def Con from 4.21686e-005 to 4.21726e-005
Heightened Def Con from 4.22098e-005 to 4.22178e-005
Heightened Def Con from 4.22244e-005 to 4.22274e-005
Heightened Def Con from 4.22496e-005 to 4.22536e-005
Heightened Def Con from 4.22644e-005 to 4.22694e-005
Heightened Def Con from 4.22923e-005 to 4.22953e-005
Heightened Def Con from 4.23486e-005 to 4.23526e-005
Heightened Def Con from 4.23729e-005 to 4.23779e-005
Heightened Def Con from 4.24148e-005 to 4.24188e-005
Heightened Def Con from 4.24317e-005 to 4.24357e-005
Heightened Def Con from 4.24427e-005 to 4.24467e-005
Heightened Def Con from 4.24575e-005 to 4.24635e-005
Heightened Def Con from 4.24698e-005 to 4.24738e-005
Heightened Def Con from 4.24858e-005 to 4.24898e-005
Heightened Def Con from 4.25118e-005 to 4.25168e-005
Heightened Def Con from 4.25238e-005 to 4.25278e-005
Heightened Def Con from 4.25511e-005 to 4.25551e-005
Heightened Def Con from 4.2568e-005 to 4.2571e-005
Heightened Def Con from 4.25789e-005 to 4.25829e-005
Heightened Def Con from 4.26506e-005 to 4.26536e-005
Heightened Def Con from 4.26937e-005 to 4.26977e-005
Heightened Def Con from 4.27699e-005 to 4.27729e-005
Heightened Def Con from 4.28419e-005 to 4.28449e-005
Heightened Def Con from 4.28693e-005 to 4.28733e-005
Heightened Def Con from 4.28865e-005 to 4.28895e-005
Heightened Def Con from 4.28975e-005 to 4.29015e-005
Heightened Def Con from 4.2914e-005 to 4.2918e-005
Heightened Def Con from 4.29252e-005 to 4.29292e-005
Heightened Def Con from 4.29418e-005 to 4.29448e-005
Heightened Def Con from 4.29527e-005 to 4.29567e-005
Heightened Def Con from 4.2969e-005 to 4.2973e-005
Heightened Def Con from 4.2997e-005 to 4.3e-005
Heightened Def Con from 4.30077e-005 to 4.30107e-005
Heightened Def Con from 4.30533e-005 to 4.30563e-005
Heightened Def Con from 4.30645e-005 to 4.30685e-005
Heightened Def Con from 4.30816e-005 to 4.30846e-005
Heightened Def Con from 4.31387e-005 to 4.31417e-005
Heightened Def Con from 4.31675e-005 to 4.31705e-005
Heightened Def Con from 4.31788e-005 to 4.31828e-005
Heightened Def Con from 4.32069e-005 to 4.32099e-005
Heightened Def Con from 4.32244e-005 to 4.32274e-005
Heightened Def Con from 4.32818e-005 to 4.32848e-005
Heightened Def Con from 4.3322e-005 to 4.3326e-005
Heightened Def Con from 4.33401e-005 to 4.33431e-005
Heightened Def Con from 4.33507e-005 to 4.33547e-005
Heightened Def Con from 4.33787e-005 to 4.33827e-005
Heightened Def Con from 4.33963e-005 to 4.33993e-005
Heightened Def Con from 4.3407e-005 to 4.3411e-005
Heightened Def Con from 4.34495e-005 to 4.34565e-005
Heightened Def Con from 4.34777e-005 to 4.34847e-005
Heightened Def Con from 4.35642e-005 to 4.35702e-005
Heightened Def Con from 4.35773e-005 to 4.35813e-005
Heightened Def Con from 4.35926e-005 to 4.35976e-005
Heightened Def Con from 4.36049e-005 to 4.36089e-005
Heightened Def Con from 4.36216e-005 to 4.36246e-005
Heightened Def Con from 4.3632e-005 to 4.3636e-005
Heightened Def Con from 4.36465e-005 to 4.36525e-005
Heightened Def Con from 4.36758e-005 to 4.36788e-005
Heightened Def Con from 4.36862e-005 to 4.36902e-005
Heightened Def Con from 4.37031e-005 to 4.37061e-005
Heightened Def Con from 4.3731e-005 to 4.3734e-005
Heightened Def Con from 4.37419e-005 to 4.37459e-005
Heightened Def Con from 4.37575e-005 to 4.37625e-005
Heightened Def Con from 4.37978e-005 to 4.38018e-005
Heightened Def Con from 4.38731e-005 to 4.38761e-005
Heightened Def Con from 4.38845e-005 to 4.38885e-005
Heightened Def Con from 4.39021e-005 to 4.39051e-005
Heightened Def Con from 4.39149e-005 to 4.39179e-005
Heightened Def Con from 4.393e-005 to 4.3933e-005
Heightened Def Con from 4.39544e-005 to 4.39624e-005
Heightened Def Con from 4.40129e-005 to 4.40159e-005
Heightened Def Con from 4.40415e-005 to 4.40445e-005
Heightened Def Con from 4.40532e-005 to 4.40562e-005
Heightened Def Con from 4.40706e-005 to 4.40736e-005
Heightened Def Con from 4.4081e-005 to 4.4085e-005
Heightened Def Con from 4.41266e-005 to 4.41306e-005
Heightened Def Con from 4.41656e-005 to 4.41706e-005
Heightened Def Con from 4.41936e-005 to 4.41976e-005
Heightened Def Con from 4.43263e-005 to 4.43303e-005
Heightened Def Con from 4.43669e-005 to 4.43709e-005
Heightened Def Con from 4.43849e-005 to 4.43879e-005
Heightened Def Con from 4.44246e-005 to 4.44286e-005
Heightened Def Con from 4.44424e-005 to 4.44454e-005
Heightened Def Con from 4.44945e-005 to 4.45005e-005
Heightened Def Con from 4.45268e-005 to 4.45298e-005
Heightened Def Con from 4.45377e-005 to 4.45407e-005
Heightened Def Con from 4.45541e-005 to 4.45571e-005
Heightened Def Con from 4.45928e-005 to 4.45958e-005
Heightened Def Con from 4.46792e-005 to 4.46822e-005
Heightened Def Con from 4.47086e-005 to 4.47116e-005
Heightened Def Con from 4.47259e-005 to 4.47289e-005
Heightened Def Con from 4.47366e-005 to 4.47406e-005
Heightened Def Con from 4.4794e-005 to 4.4798e-005
Heightened Def Con from 4.48226e-005 to 4.48266e-005
Heightened Def Con from 4.4851e-005 to 4.4855e-005
Heightened Def Con from 4.48803e-005 to 4.48833e-005
Heightened Def Con from 4.48969e-005 to 4.48999e-005
Heightened Def Con from 4.49089e-005 to 4.49119e-005
Heightened Def Con from 4.49249e-005 to 4.49289e-005
Heightened Def Con from 4.49816e-005 to 4.49846e-005
Heightened Def Con from 4.50105e-005 to 4.50135e-005
Heightened Def Con from 4.50367e-005 to 4.50397e-005
Heightened Def Con from 4.51271e-005 to 4.51311e-005
Heightened Def Con from 4.51559e-005 to 4.51589e-005
Heightened Def Con from 4.51667e-005 to 4.51707e-005
Heightened Def Con from 4.52383e-005 to 4.52463e-005
Heightened Def Con from 4.52697e-005 to 4.52727e-005
Heightened Def Con from 4.53084e-005 to 4.53124e-005
Heightened Def Con from 4.53658e-005 to 4.53698e-005
Heightened Def Con from 4.53944e-005 to 4.53984e-005
Heightened Def Con from 4.5452e-005 to 4.5456e-005
Heightened Def Con from 4.54807e-005 to 4.54847e-005
Heightened Def Con from 4.54985e-005 to 4.55015e-005
Heightened Def Con from 4.55087e-005 to 4.55117e-005
Heightened Def Con from 4.55243e-005 to 4.55303e-005
Heightened Def Con from 4.55532e-005 to 4.55572e-005
Heightened Def Con from 4.55641e-005 to 4.55671e-005
Heightened Def Con from 4.55813e-005 to 4.55843e-005
Heightened Def Con from 4.55914e-005 to 4.55944e-005
Heightened Def Con from 4.56081e-005 to 4.56111e-005
Heightened Def Con from 4.56183e-005 to 4.56223e-005
Heightened Def Con from 4.56457e-005 to 4.56497e-005
Heightened Def Con from 4.56626e-005 to 4.56666e-005
Heightened Def Con from 4.5687e-005 to 4.5695e-005
Heightened Def Con from 4.57179e-005 to 4.57209e-005
Heightened Def Con from 4.57282e-005 to 4.57312e-005
Heightened Def Con from 4.57555e-005 to 4.57595e-005
Heightened Def Con from 4.5771e-005 to 4.5777e-005
Heightened Def Con from 4.58115e-005 to 4.58145e-005
Heightened Def Con from 4.58392e-005 to 4.58422e-005
Heightened Def Con from 4.59554e-005 to 4.59594e-005
Heightened Def Con from 4.60028e-005 to 4.60058e-005
Heightened Def Con from 4.60138e-005 to 4.60178e-005
Heightened Def Con from 4.60315e-005 to 4.60345e-005
Heightened Def Con from 4.60421e-005 to 4.60461e-005
Heightened Def Con from 4.60568e-005 to 4.60628e-005
Heightened Def Con from 4.60695e-005 to 4.60735e-005
Heightened Def Con from 4.60865e-005 to 4.60895e-005
Heightened Def Con from 4.61121e-005 to 4.61171e-005
Heightened Def Con from 4.61416e-005 to 4.61446e-005
Heightened Def Con from 4.61697e-005 to 4.61737e-005
Heightened Def Con from 4.61979e-005 to 4.62009e-005
Heightened Def Con from 4.62098e-005 to 4.62128e-005
Heightened Def Con from 4.62261e-005 to 4.62291e-005
Heightened Def Con from 4.62648e-005 to 4.62678e-005
Heightened Def Con from 4.62937e-005 to 4.62967e-005
Heightened Def Con from 4.64091e-005 to 4.64121e-005
Heightened Def Con from 4.64564e-005 to 4.64594e-005
Heightened Def Con from 4.64669e-005 to 4.64699e-005
Heightened Def Con from 4.64818e-005 to 4.64888e-005
Heightened Def Con from 4.65406e-005 to 4.65446e-005
Heightened Def Con from 4.65539e-005 to 4.65569e-005
Heightened Def Con from 4.65797e-005 to 4.65827e-005
Heightened Def Con from 4.65965e-005 to 4.66005e-005
Heightened Def Con from 4.66507e-005 to 4.66577e-005
Heightened Def Con from 4.66816e-005 to 4.66856e-005
Heightened Def Con from 4.67491e-005 to 4.67531e-005
Heightened Def Con from 4.6778e-005 to 4.6781e-005
Heightened Def Con from 4.6806e-005 to 4.681e-005
Heightened Def Con from 4.68525e-005 to 4.68555e-005
Heightened Def Con from 4.69513e-005 to 4.69553e-005
Heightened Def Con from 4.70094e-005 to 4.70134e-005
Heightened Def Con from 4.70389e-005 to 4.70419e-005
Heightened Def Con from 4.70665e-005 to 4.70705e-005
Heightened Def Con from 4.70845e-005 to 4.70875e-005
Heightened Def Con from 4.71233e-005 to 4.71273e-005
Heightened Def Con from 4.71368e-005 to 4.71448e-005
Heightened Def Con from 4.71779e-005 to 4.71819e-005
Heightened Def Con from 4.72346e-005 to 4.72386e-005
Heightened Def Con from 4.73087e-005 to 4.73147e-005
Heightened Def Con from 4.73489e-005 to 4.73539e-005
Heightened Def Con from 4.74354e-005 to 4.74384e-005
Heightened Def Con from 4.74643e-005 to 4.74683e-005
Heightened Def Con from 4.75109e-005 to 4.75139e-005
Heightened Def Con from 4.75792e-005 to 4.75822e-005
Heightened Def Con from 4.75977e-005 to 4.76007e-005
Heightened Def Con from 4.76665e-005 to 4.76705e-005
Heightened Def Con from 4.77538e-005 to 4.77578e-005
Heightened Def Con from 4.7802e-005 to 4.7805e-005
Heightened Def Con from 4.79294e-005 to 4.79334e-005
Heightened Def Con from 4.79478e-005 to 4.79508e-005
Heightened Def Con from 4.80164e-005 to 4.80204e-005
Heightened Def Con from 4.8104e-005 to 4.8108e-005
Heightened Def Con from 4.81234e-005 to 4.81264e-005
Heightened Def Con from 4.81445e-005 to 4.81545e-005
Heightened Def Con from 4.82013e-005 to 4.82043e-005
Heightened Def Con from 4.82142e-005 to 4.82182e-005
Heightened Def Con from 4.82708e-005 to 4.82748e-005
Heightened Def Con from 4.83575e-005 to 4.83615e-005
Heightened Def Con from 4.84154e-005 to 4.84194e-005
Heightened Def Con from 4.84337e-005 to 4.84367e-005
Heightened Def Con from 4.84439e-005 to 4.84479e-005
Heightened Def Con from 4.84616e-005 to 4.84646e-005
Heightened Def Con from 4.85293e-005 to 4.85333e-005
Heightened Def Con from 4.85477e-005 to 4.85507e-005
Heightened Def Con from 4.85758e-005 to 4.85788e-005
Heightened Def Con from 4.86149e-005 to 4.86189e-005
Heightened Def Con from 4.87029e-005 to 4.87059e-005
Heightened Def Con from 4.87311e-005 to 4.87351e-005
Heightened Def Con from 4.87598e-005 to 4.87638e-005
Heightened Def Con from 4.88627e-005 to 4.88687e-005
Heightened Def Con from 4.89631e-005 to 4.89671e-005
Heightened Def Con from 4.89918e-005 to 4.89958e-005
Heightened Def Con from 4.9096e-005 to 4.91e-005
Heightened Def Con from 4.91077e-005 to 4.91117e-005
Heightened Def Con from 4.9136e-005 to 4.914e-005
Heightened Def Con from 4.91944e-005 to 4.91974e-005
Heightened Def Con from 4.92118e-005 to 4.92148e-005
Heightened Def Con from 4.92411e-005 to 4.92441e-005
Heightened Def Con from 4.92522e-005 to 4.92552e-005
Heightened Def Con from 4.93079e-005 to 4.93119e-005
Heightened Def Con from 4.94686e-005 to 4.94766e-005
Heightened Def Con from 4.95289e-005 to 4.95319e-005
Heightened Def Con from 4.95411e-005 to 4.95441e-005
Heightened Def Con from 4.95675e-005 to 4.95715e-005
Heightened Def Con from 4.96537e-005 to 4.96577e-005
Heightened Def Con from 4.97011e-005 to 4.97041e-005
Heightened Def Con from 4.97593e-005 to 4.97623e-005
Heightened Def Con from 4.98177e-005 to 4.98217e-005
Heightened Def Con from 4.9887e-005 to 4.9891e-005
Heightened Def Con from 4.99055e-005 to 4.99085e-005
Heightened Def Con from 5.01114e-005 to 5.01154e-005
Heightened Def Con from 5.02274e-005 to 5.02334e-005
Heightened Def Con from 5.02401e-005 to 5.02441e-005
Heightened Def Con from 5.03266e-005 to 5.03306e-005
Heightened Def Con from 5.03555e-005 to 5.03595e-005
Heightened Def Con from 5.04022e-005 to 5.04052e-005
Heightened Def Con from 5.04416e-005 to 5.04456e-005
Heightened Def Con from 5.046e-005 to 5.0463e-005
Heightened Def Con from 5.07667e-005 to 5.07697e-005
Heightened Def Con from 5.08434e-005 to 5.08464e-005
Heightened Def Con from 5.08543e-005 to 5.08573e-005
Heightened Def Con from 5.10003e-005 to 5.10033e-005
Heightened Def Con from 5.10581e-005 to 5.10621e-005
Heightened Def Con from 5.14427e-005 to 5.14467e-005
Heightened Def Con from 5.14717e-005 to 5.14757e-005
Heightened Def Con from 5.1607e-005 to 5.1611e-005
Heightened Def Con from 5.1678e-005 to 5.1681e-005
Heightened Def Con from 5.16954e-005 to 5.16984e-005
Heightened Def Con from 5.178e-005 to 5.1787e-005
Heightened Def Con from 5.19693e-005 to 5.19733e-005
Heightened Def Con from 5.22061e-005 to 5.22091e-005
Heightened Def Con from 5.24125e-005 to 5.24165e-005
Heightened Def Con from 5.25165e-005 to 5.25225e-005
Heightened Def Con from 5.2636e-005 to 5.2639e-005
Heightened Def Con from 5.27949e-005 to 5.27989e-005
Heightened Def Con from 5.32693e-005 to 5.32733e-005
Heightened Def Con from 5.38901e-005 to 5.38941e-005
Heightened Def Con from 5.42933e-005 to 5.42963e-005
Heightened Def Con from 5.67949e-005 to 5.67989e-005
Heightened Def Con from 5.89422e-005 to 5.89452e-005
Heightened Def Con from 6.18439e-005 to 6.18469e-005
Heightened Def Con from 6.1973e-005 to 6.1977e-005
Heightened Def Con from 6.20199e-005 to 6.20229e-005
Heightened Def Con from 6.20894e-005 to 6.20934e-005
Heightened Def Con from 6.21476e-005 to 6.21516e-005
Heightened Def Con from 6.24909e-005 to 6.24939e-005
Heightened Def Con from 6.25312e-005 to 6.25352e-005
Heightened Def Con from 6.256e-005 to 6.2564e-005
Heightened Def Con from 6.26358e-005 to 6.26388e-005
Heightened Def Con from 6.26472e-005 to 6.26512e-005
Heightened Def Con from 6.26648e-005 to 6.26678e-005
Heightened Def Con from 6.2763e-005 to 6.2767e-005
Heightened Def Con from 6.28213e-005 to 6.28253e-005
Heightened Def Con from 6.28388e-005 to 6.28418e-005
Heightened Def Con from 6.28499e-005 to 6.28539e-005
Heightened Def Con from 6.29836e-005 to 6.29866e-005
Heightened Def Con from 6.32611e-005 to 6.32651e-005
Heightened Def Con from 6.33374e-005 to 6.33404e-005
Heightened Def Con from 6.34258e-005 to 6.34288e-005
Heightened Def Con from 6.35137e-005 to 6.35167e-005
Heightened Def Con from 6.35833e-005 to 6.35873e-005
Heightened Def Con from 6.36014e-005 to 6.36044e-005
Heightened Def Con from 6.36406e-005 to 6.36446e-005
Heightened Def Con from 6.37466e-005 to 6.37496e-005
Heightened Def Con from 6.38347e-005 to 6.38377e-005
Heightened Def Con from 6.40236e-005 to 6.40276e-005
Heightened Def Con from 6.40527e-005 to 6.40567e-005
Heightened Def Con from 6.40704e-005 to 6.40734e-005
Heightened Def Con from 6.41098e-005 to 6.41138e-005
Heightened Def Con from 6.42155e-005 to 6.42185e-005
Heightened Def Con from 6.42561e-005 to 6.42601e-005
Heightened Def Con from 6.42739e-005 to 6.42769e-005
Heightened Def Con from 6.42846e-005 to 6.42886e-005
Heightened Def Con from 6.43413e-005 to 6.43453e-005
Heightened Def Con from 6.44762e-005 to 6.44792e-005
Heightened Def Con from 6.45049e-005 to 6.45079e-005
Heightened Def Con from 6.46334e-005 to 6.46374e-005
Heightened Def Con from 6.48394e-005 to 6.48424e-005
Heightened Def Con from 6.48552e-005 to 6.48582e-005
Heightened Def Con from 6.48979e-005 to 6.49019e-005
Heightened Def Con from 6.50148e-005 to 6.50188e-005
Heightened Def Con from 6.50435e-005 to 6.50475e-005
Heightened Def Con from 6.50612e-005 to 6.50642e-005
Heightened Def Con from 6.50718e-005 to 6.50758e-005
Heightened Def Con from 6.50891e-005 to 6.50921e-005
Heightened Def Con from 6.50992e-005 to 6.51022e-005
Heightened Def Con from 6.51553e-005 to 6.51593e-005
Heightened Def Con from 6.51731e-005 to 6.51761e-005
Heightened Def Con from 6.51836e-005 to 6.51876e-005
Heightened Def Con from 6.52402e-005 to 6.52442e-005
Heightened Def Con from 6.53163e-005 to 6.53193e-005
Heightened Def Con from 6.53272e-005 to 6.53312e-005
Heightened Def Con from 6.53449e-005 to 6.53479e-005
Heightened Def Con from 6.53554e-005 to 6.53594e-005
Heightened Def Con from 6.53729e-005 to 6.53759e-005
Heightened Def Con from 6.54008e-005 to 6.54038e-005
Heightened Def Con from 6.54112e-005 to 6.54152e-005
Heightened Def Con from 6.5429e-005 to 6.5432e-005
Heightened Def Con from 6.56034e-005 to 6.56064e-005
Heightened Def Con from 6.56437e-005 to 6.56477e-005
Heightened Def Con from 6.56908e-005 to 6.56938e-005
Heightened Def Con from 6.57016e-005 to 6.57056e-005
Heightened Def Con from 6.5748e-005 to 6.5751e-005
Heightened Def Con from 6.57584e-005 to 6.57614e-005
Heightened Def Con from 6.57761e-005 to 6.57801e-005
Heightened Def Con from 6.58144e-005 to 6.58184e-005
Heightened Def Con from 6.58324e-005 to 6.58354e-005
Heightened Def Con from 6.59003e-005 to 6.59033e-005
Heightened Def Con from 6.59184e-005 to 6.59214e-005
Heightened Def Con from 6.5929e-005 to 6.5933e-005
Heightened Def Con from 6.59467e-005 to 6.59497e-005
Heightened Def Con from 6.59568e-005 to 6.59608e-005
Heightened Def Con from 6.59741e-005 to 6.59771e-005
Heightened Def Con from 6.59842e-005 to 6.59882e-005
Heightened Def Con from 6.60014e-005 to 6.60044e-005
Heightened Def Con from 6.60291e-005 to 6.60321e-005
Heightened Def Con from 6.60394e-005 to 6.60434e-005
Heightened Def Con from 6.60567e-005 to 6.60597e-005
Heightened Def Con from 6.60669e-005 to 6.60709e-005
Heightened Def Con from 6.60841e-005 to 6.60871e-005
Heightened Def Con from 6.61515e-005 to 6.61555e-005
Heightened Def Con from 6.61801e-005 to 6.61841e-005
Heightened Def Con from 6.61979e-005 to 6.62009e-005
Heightened Def Con from 6.62081e-005 to 6.62111e-005
Heightened Def Con from 6.62256e-005 to 6.62286e-005
Heightened Def Con from 6.62535e-005 to 6.62565e-005
Heightened Def Con from 6.63114e-005 to 6.63144e-005
Heightened Def Con from 6.6322e-005 to 6.6326e-005
Heightened Def Con from 6.63796e-005 to 6.63836e-005
Heightened Def Con from 6.64662e-005 to 6.64702e-005
Heightened Def Con from 6.64844e-005 to 6.64874e-005
Heightened Def Con from 6.65131e-005 to 6.65161e-005
Heightened Def Con from 6.65234e-005 to 6.65274e-005
Heightened Def Con from 6.65516e-005 to 6.65556e-005
Heightened Def Con from 6.65795e-005 to 6.65825e-005
Heightened Def Con from 6.66367e-005 to 6.66407e-005
Heightened Def Con from 6.66547e-005 to 6.66587e-005
Heightened Def Con from 6.66932e-005 to 6.66972e-005
Heightened Def Con from 6.68977e-005 to 6.69017e-005
Heightened Def Con from 6.70041e-005 to 6.70071e-005
Heightened Def Con from 6.70442e-005 to 6.70482e-005
Heightened Def Con from 6.70731e-005 to 6.70771e-005
Heightened Def Con from 6.70912e-005 to 6.70942e-005
Heightened Def Con from 6.71192e-005 to 6.71232e-005
Heightened Def Con from 6.71578e-005 to 6.71618e-005
Heightened Def Con from 6.72151e-005 to 6.72191e-005
Heightened Def Con from 6.72333e-005 to 6.72363e-005
Heightened Def Con from 6.72436e-005 to 6.72476e-005
Heightened Def Con from 6.73e-005 to 6.7304e-005
Heightened Def Con from 6.73283e-005 to 6.73323e-005
Heightened Def Con from 6.73856e-005 to 6.73896e-005
Heightened Def Con from 6.74037e-005 to 6.74077e-005
Heightened Def Con from 6.7414e-005 to 6.7418e-005
Heightened Def Con from 6.74315e-005 to 6.74345e-005
Heightened Def Con from 6.74595e-005 to 6.74625e-005
Heightened Def Con from 6.74877e-005 to 6.74907e-005
Heightened Def Con from 6.7498e-005 to 6.7502e-005
Heightened Def Con from 6.7516e-005 to 6.7519e-005
Heightened Def Con from 6.75835e-005 to 6.75875e-005
Heightened Def Con from 6.76017e-005 to 6.76047e-005
Heightened Def Con from 6.76406e-005 to 6.76436e-005
Heightened Def Con from 6.76586e-005 to 6.76616e-005
Heightened Def Con from 6.76689e-005 to 6.76729e-005
Heightened Def Con from 6.76864e-005 to 6.76904e-005
Heightened Def Con from 6.76965e-005 to 6.77005e-005
Heightened Def Con from 6.77522e-005 to 6.77562e-005
Heightened Def Con from 6.77703e-005 to 6.77743e-005
Heightened Def Con from 6.7809e-005 to 6.7813e-005
Heightened Def Con from 6.78269e-005 to 6.78309e-005
Heightened Def Con from 6.79131e-005 to 6.79161e-005
Heightened Def Con from 6.79236e-005 to 6.79276e-005
Heightened Def Con from 6.79417e-005 to 6.79447e-005
Heightened Def Con from 6.79517e-005 to 6.79557e-005
Heightened Def Con from 6.79692e-005 to 6.79722e-005
Heightened Def Con from 6.79793e-005 to 6.79833e-005
Heightened Def Con from 6.79968e-005 to 6.79998e-005
Heightened Def Con from 6.80637e-005 to 6.80677e-005
Heightened Def Con from 6.8082e-005 to 6.8085e-005
Heightened Def Con from 6.81398e-005 to 6.81428e-005
Heightened Def Con from 6.81687e-005 to 6.81717e-005
Heightened Def Con from 6.81976e-005 to 6.82006e-005
Heightened Def Con from 6.82555e-005 to 6.82585e-005
Heightened Def Con from 6.82954e-005 to 6.82994e-005
Heightened Def Con from 6.83244e-005 to 6.83284e-005
Heightened Def Con from 6.83424e-005 to 6.83454e-005
Heightened Def Con from 6.83525e-005 to 6.83565e-005
Heightened Def Con from 6.83701e-005 to 6.83731e-005
Heightened Def Con from 6.838e-005 to 6.8384e-005
Heightened Def Con from 6.83974e-005 to 6.84004e-005
Heightened Def Con from 6.8425e-005 to 6.8428e-005
Heightened Def Con from 6.84352e-005 to 6.84392e-005
Heightened Def Con from 6.84528e-005 to 6.84558e-005
Heightened Def Con from 6.84627e-005 to 6.84667e-005
Heightened Def Con from 6.849e-005 to 6.8494e-005
Heightened Def Con from 6.85465e-005 to 6.85505e-005
Heightened Def Con from 6.85647e-005 to 6.85677e-005
Heightened Def Con from 6.85748e-005 to 6.85788e-005
Heightened Def Con from 6.86606e-005 to 6.86646e-005
Heightened Def Con from 6.8708e-005 to 6.8711e-005
Heightened Def Con from 6.87185e-005 to 6.87225e-005
Heightened Def Con from 6.87364e-005 to 6.87394e-005
Heightened Def Con from 6.87464e-005 to 6.87504e-005
Heightened Def Con from 6.8774e-005 to 6.8777e-005
Heightened Def Con from 6.88022e-005 to 6.88062e-005
Heightened Def Con from 6.88201e-005 to 6.88231e-005
Heightened Def Con from 6.88301e-005 to 6.88341e-005
Heightened Def Con from 6.89157e-005 to 6.89197e-005
Heightened Def Con from 6.8934e-005 to 6.8937e-005
Heightened Def Con from 6.89442e-005 to 6.89482e-005
Heightened Def Con from 6.89618e-005 to 6.89658e-005
Heightened Def Con from 6.89717e-005 to 6.89757e-005
Heightened Def Con from 6.89889e-005 to 6.89919e-005
Heightened Def Con from 6.90166e-005 to 6.90196e-005
Heightened Def Con from 6.90553e-005 to 6.90593e-005
Heightened Def Con from 6.91029e-005 to 6.91059e-005
Heightened Def Con from 6.91316e-005 to 6.91346e-005
Heightened Def Con from 6.91417e-005 to 6.91457e-005
Heightened Def Con from 6.91597e-005 to 6.91627e-005
Heightened Def Con from 6.91698e-005 to 6.91738e-005
Heightened Def Con from 6.92745e-005 to 6.92775e-005
Heightened Def Con from 6.9285e-005 to 6.9289e-005
Heightened Def Con from 6.93032e-005 to 6.93062e-005
Heightened Def Con from 6.94005e-005 to 6.94045e-005
Heightened Def Con from 6.94191e-005 to 6.94221e-005
Heightened Def Con from 6.94294e-005 to 6.94334e-005
Heightened Def Con from 6.94473e-005 to 6.94503e-005
Heightened Def Con from 6.94572e-005 to 6.94612e-005
Heightened Def Con from 6.94747e-005 to 6.94777e-005
Heightened Def Con from 6.94849e-005 to 6.94889e-005
Heightened Def Con from 6.95021e-005 to 6.95061e-005
Heightened Def Con from 6.953e-005 to 6.9533e-005
Heightened Def Con from 6.95686e-005 to 6.95726e-005
Heightened Def Con from 6.95868e-005 to 6.95908e-005
Heightened Def Con from 6.95969e-005 to 6.96009e-005
Heightened Def Con from 6.96244e-005 to 6.96274e-005
Heightened Def Con from 6.96424e-005 to 6.96454e-005
Heightened Def Con from 6.96522e-005 to 6.96562e-005
Heightened Def Con from 6.96698e-005 to 6.96728e-005
Heightened Def Con from 6.96798e-005 to 6.96838e-005
Heightened Def Con from 6.96973e-005 to 6.97003e-005
Heightened Def Con from 6.97356e-005 to 6.97396e-005
Heightened Def Con from 6.97537e-005 to 6.97567e-005
Heightened Def Con from 6.97821e-005 to 6.97851e-005
Heightened Def Con from 6.98109e-005 to 6.98139e-005
Heightened Def Con from 6.98209e-005 to 6.98249e-005
Heightened Def Con from 6.9839e-005 to 6.9842e-005
Heightened Def Con from 6.98493e-005 to 6.98523e-005
Heightened Def Con from 6.98668e-005 to 6.98698e-005
Heightened Def Con from 6.9895e-005 to 6.9898e-005
Heightened Def Con from 6.99235e-005 to 6.99265e-005
Heightened Def Con from 6.99338e-005 to 6.99378e-005
Heightened Def Con from 6.99517e-005 to 6.99547e-005
Heightened Def Con from 6.99617e-005 to 6.99657e-005
Heightened Def Con from 6.99793e-005 to 6.99823e-005
Heightened Def Con from 6.99893e-005 to 6.99933e-005
Heightened Def Con from 7.00069e-005 to 7.00099e-005
Heightened Def Con from 7.00632e-005 to 7.00662e-005
Heightened Def Con from 7.00735e-005 to 7.00775e-005
Heightened Def Con from 7.00914e-005 to 7.00944e-005
Heightened Def Con from 7.01195e-005 to 7.01225e-005
Heightened Def Con from 7.01483e-005 to 7.01513e-005
Heightened Def Con from 7.01584e-005 to 7.01624e-005
Heightened Def Con from 7.01765e-005 to 7.01795e-005
Heightened Def Con from 7.01863e-005 to 7.01903e-005
Heightened Def Con from 7.0204e-005 to 7.0207e-005
Heightened Def Con from 7.02323e-005 to 7.02353e-005
Heightened Def Con from 7.02422e-005 to 7.02462e-005
Heightened Def Con from 7.02703e-005 to 7.02743e-005
Heightened Def Con from 7.02883e-005 to 7.02913e-005
Heightened Def Con from 7.02984e-005 to 7.03024e-005
Heightened Def Con from 7.03444e-005 to 7.03474e-005
Heightened Def Con from 7.03547e-005 to 7.03587e-005
Heightened Def Con from 7.03725e-005 to 7.03765e-005
Heightened Def Con from 7.03825e-005 to 7.03865e-005
Heightened Def Con from 7.04e-005 to 7.0403e-005
Heightened Def Con from 7.04096e-005 to 7.04136e-005
Heightened Def Con from 7.04271e-005 to 7.04301e-005
Heightened Def Con from 7.04652e-005 to 7.04692e-005
Heightened Def Con from 7.04834e-005 to 7.04864e-005
Heightened Def Con from 7.04938e-005 to 7.04968e-005
Heightened Def Con from 7.0512e-005 to 7.0515e-005
Heightened Def Con from 7.05495e-005 to 7.05535e-005
Heightened Def Con from 7.05675e-005 to 7.05705e-005
Heightened Def Con from 7.05779e-005 to 7.05809e-005
Heightened Def Con from 7.05955e-005 to 7.05985e-005
Heightened Def Con from 7.06342e-005 to 7.06382e-005
Heightened Def Con from 7.06525e-005 to 7.06555e-005
Heightened Def Con from 7.06624e-005 to 7.06664e-005
Heightened Def Con from 7.06802e-005 to 7.06842e-005
Heightened Def Con from 7.06901e-005 to 7.06941e-005
Heightened Def Con from 7.07076e-005 to 7.07106e-005
Heightened Def Con from 7.07456e-005 to 7.07496e-005
Heightened Def Con from 7.07639e-005 to 7.07669e-005
Heightened Def Con from 7.07738e-005 to 7.07778e-005
Heightened Def Con from 7.07915e-005 to 7.07955e-005
Heightened Def Con from 7.08013e-005 to 7.08053e-005
Heightened Def Con from 7.08188e-005 to 7.08218e-005
Heightened Def Con from 7.08566e-005 to 7.08596e-005
Heightened Def Con from 7.08744e-005 to 7.08774e-005
Heightened Def Con from 7.08846e-005 to 7.08886e-005
Heightened Def Con from 7.09025e-005 to 7.09055e-005
Heightened Def Con from 7.09122e-005 to 7.09162e-005
Heightened Def Con from 7.09301e-005 to 7.09331e-005
Heightened Def Con from 7.09399e-005 to 7.09439e-005
Heightened Def Con from 7.0996e-005 to 7.1001e-005
Heightened Def Con from 7.10143e-005 to 7.10173e-005
Heightened Def Con from 7.10246e-005 to 7.10276e-005
Heightened Def Con from 7.10424e-005 to 7.10454e-005
Heightened Def Con from 7.10522e-005 to 7.10562e-005
Heightened Def Con from 7.10701e-005 to 7.10731e-005
Heightened Def Con from 7.11374e-005 to 7.11404e-005
Heightened Def Con from 7.11663e-005 to 7.11703e-005
Heightened Def Con from 7.11848e-005 to 7.11878e-005
Heightened Def Con from 7.12232e-005 to 7.12272e-005
Heightened Def Con from 7.12419e-005 to 7.12449e-005
Heightened Def Con from 7.12519e-005 to 7.12559e-005
Heightened Def Con from 7.12694e-005 to 7.12724e-005
Heightened Def Con from 7.12976e-005 to 7.13006e-005
Heightened Def Con from 7.13363e-005 to 7.13393e-005
Heightened Def Con from 7.13547e-005 to 7.13577e-005
Heightened Def Con from 7.13648e-005 to 7.13688e-005
Heightened Def Con from 7.13825e-005 to 7.13855e-005
Heightened Def Con from 7.13924e-005 to 7.13964e-005
Heightened Def Con from 7.14099e-005 to 7.14129e-005
Heightened Def Con from 7.14479e-005 to 7.14519e-005
Heightened Def Con from 7.14663e-005 to 7.14693e-005
Heightened Def Con from 7.14761e-005 to 7.14801e-005
Heightened Def Con from 7.14938e-005 to 7.14968e-005
Heightened Def Con from 7.15037e-005 to 7.15077e-005
Heightened Def Con from 7.15311e-005 to 7.15351e-005
Heightened Def Con from 7.15487e-005 to 7.15527e-005
Heightened Def Con from 7.15586e-005 to 7.15626e-005
Heightened Def Con from 7.15757e-005 to 7.15787e-005
Heightened Def Con from 7.15855e-005 to 7.15895e-005
Heightened Def Con from 7.16027e-005 to 7.16067e-005
Heightened Def Con from 7.16124e-005 to 7.16164e-005
Heightened Def Con from 7.16293e-005 to 7.16333e-005
Heightened Def Con from 7.16566e-005 to 7.16596e-005
Heightened Def Con from 7.16664e-005 to 7.16704e-005
Heightened Def Con from 7.16839e-005 to 7.16879e-005
Heightened Def Con from 7.16938e-005 to 7.16978e-005
Heightened Def Con from 7.17109e-005 to 7.17139e-005
Heightened Def Con from 7.17206e-005 to 7.17246e-005
Heightened Def Con from 7.17377e-005 to 7.17417e-005
Heightened Def Con from 7.17475e-005 to 7.17515e-005
Heightened Def Con from 7.17644e-005 to 7.17674e-005
Heightened Def Con from 7.17743e-005 to 7.17783e-005
Heightened Def Con from 7.17914e-005 to 7.17944e-005
Heightened Def Con from 7.18188e-005 to 7.18228e-005
Heightened Def Con from 7.18471e-005 to 7.18501e-005
Heightened Def Con from 7.18573e-005 to 7.18613e-005
Heightened Def Con from 7.18749e-005 to 7.18779e-005
Heightened Def Con from 7.18848e-005 to 7.18878e-005
Heightened Def Con from 7.19021e-005 to 7.19051e-005
Heightened Def Con from 7.19121e-005 to 7.19161e-005
Heightened Def Con from 7.19292e-005 to 7.19332e-005
Heightened Def Con from 7.19391e-005 to 7.19431e-005
Heightened Def Con from 7.1956e-005 to 7.1959e-005
Heightened Def Con from 7.19657e-005 to 7.19687e-005
Heightened Def Con from 7.19827e-005 to 7.19867e-005
Heightened Def Con from 7.19926e-005 to 7.19966e-005
Heightened Def Con from 7.20096e-005 to 7.20126e-005
Heightened Def Con from 7.20197e-005 to 7.20227e-005
Heightened Def Con from 7.20366e-005 to 7.20396e-005
Heightened Def Con from 7.20468e-005 to 7.20508e-005
Heightened Def Con from 7.2064e-005 to 7.2067e-005
Heightened Def Con from 7.2074e-005 to 7.2078e-005
Heightened Def Con from 7.2091e-005 to 7.2095e-005
Heightened Def Con from 7.21011e-005 to 7.21051e-005
Heightened Def Con from 7.21178e-005 to 7.21218e-005
Heightened Def Con from 7.21277e-005 to 7.21317e-005
Heightened Def Con from 7.21443e-005 to 7.21473e-005
Heightened Def Con from 7.21716e-005 to 7.21746e-005
Heightened Def Con from 7.21819e-005 to 7.21859e-005
Heightened Def Con from 7.21991e-005 to 7.22021e-005
Heightened Def Con from 7.22092e-005 to 7.22132e-005
Heightened Def Con from 7.22262e-005 to 7.22302e-005
Heightened Def Con from 7.22365e-005 to 7.22405e-005
Heightened Def Con from 7.22531e-005 to 7.22561e-005
Heightened Def Con from 7.22632e-005 to 7.22672e-005
Heightened Def Con from 7.228e-005 to 7.2283e-005
Heightened Def Con from 7.229e-005 to 7.2294e-005
Heightened Def Con from 7.23069e-005 to 7.23109e-005
Heightened Def Con from 7.23341e-005 to 7.23371e-005
Heightened Def Con from 7.23444e-005 to 7.23484e-005
Heightened Def Con from 7.23615e-005 to 7.23655e-005
Heightened Def Con from 7.23888e-005 to 7.23918e-005
Heightened Def Con from 7.23991e-005 to 7.24031e-005
Heightened Def Con from 7.24163e-005 to 7.24193e-005
Heightened Def Con from 7.24265e-005 to 7.24305e-005
Heightened Def Con from 7.24434e-005 to 7.24474e-005
Heightened Def Con from 7.24537e-005 to 7.24577e-005
Heightened Def Con from 7.24702e-005 to 7.24732e-005
Heightened Def Con from 7.24801e-005 to 7.24841e-005
Heightened Def Con from 7.24968e-005 to 7.25008e-005
Heightened Def Con from 7.25071e-005 to 7.25111e-005
Heightened Def Con from 7.25234e-005 to 7.25264e-005
Heightened Def Con from 7.25333e-005 to 7.25373e-005
Heightened Def Con from 7.255e-005 to 7.2553e-005
Heightened Def Con from 7.25772e-005 to 7.25802e-005
Heightened Def Con from 7.25876e-005 to 7.25906e-005
Heightened Def Con from 7.2605e-005 to 7.2608e-005
Heightened Def Con from 7.26152e-005 to 7.26182e-005
Heightened Def Con from 7.26326e-005 to 7.26356e-005
Heightened Def Con from 7.26427e-005 to 7.26467e-005
Heightened Def Con from 7.26597e-005 to 7.26627e-005
Heightened Def Con from 7.267e-005 to 7.2674e-005
Heightened Def Con from 7.26869e-005 to 7.26899e-005
Heightened Def Con from 7.2697e-005 to 7.27e-005
Heightened Def Con from 7.27244e-005 to 7.27284e-005
Heightened Def Con from 7.27415e-005 to 7.27445e-005
Heightened Def Con from 7.2752e-005 to 7.2756e-005
Heightened Def Con from 7.27689e-005 to 7.27729e-005
Heightened Def Con from 7.27796e-005 to 7.27836e-005
Heightened Def Con from 7.27961e-005 to 7.27991e-005
Heightened Def Con from 7.28062e-005 to 7.28092e-005
Heightened Def Con from 7.28231e-005 to 7.28261e-005
Heightened Def Con from 7.28333e-005 to 7.28373e-005
Heightened Def Con from 7.285e-005 to 7.2854e-005
Heightened Def Con from 7.28604e-005 to 7.28644e-005
Heightened Def Con from 7.2877e-005 to 7.288e-005
Heightened Def Con from 7.28871e-005 to 7.28911e-005
Heightened Def Con from 7.29142e-005 to 7.29182e-005
Heightened Def Con from 7.29312e-005 to 7.29342e-005
Heightened Def Con from 7.29416e-005 to 7.29456e-005
Heightened Def Con from 7.29585e-005 to 7.29615e-005
Heightened Def Con from 7.29687e-005 to 7.29717e-005
Heightened Def Con from 7.29857e-005 to 7.29887e-005
Heightened Def Con from 7.2996e-005 to 7.2999e-005
Heightened Def Con from 7.30129e-005 to 7.30169e-005
Heightened Def Con from 7.30236e-005 to 7.30276e-005
Heightened Def Con from 7.30401e-005 to 7.30431e-005
Heightened Def Con from 7.30505e-005 to 7.30545e-005
Heightened Def Con from 7.30672e-005 to 7.30712e-005
Heightened Def Con from 7.30777e-005 to 7.30817e-005
Heightened Def Con from 7.30942e-005 to 7.30972e-005
Heightened Def Con from 7.31043e-005 to 7.31073e-005
Heightened Def Con from 7.31316e-005 to 7.31356e-005
Heightened Def Con from 7.31487e-005 to 7.31517e-005
Heightened Def Con from 7.31592e-005 to 7.31632e-005
Heightened Def Con from 7.31761e-005 to 7.31801e-005
Heightened Def Con from 7.32036e-005 to 7.32066e-005
Heightened Def Con from 7.32428e-005 to 7.32468e-005
Heightened Def Con from 7.32605e-005 to 7.32635e-005
Heightened Def Con from 7.3271e-005 to 7.3275e-005
Heightened Def Con from 7.32881e-005 to 7.32911e-005
Heightened Def Con from 7.32991e-005 to 7.33031e-005
Heightened Def Con from 7.33158e-005 to 7.33188e-005
Heightened Def Con from 7.33266e-005 to 7.33306e-005
Heightened Def Con from 7.33434e-005 to 7.33474e-005
Heightened Def Con from 7.33823e-005 to 7.33863e-005
Heightened Def Con from 7.33996e-005 to 7.34026e-005
Heightened Def Con from 7.34106e-005 to 7.34146e-005
Heightened Def Con from 7.34275e-005 to 7.34305e-005
Heightened Def Con from 7.34382e-005 to 7.34412e-005
Heightened Def Con from 7.34552e-005 to 7.34582e-005
Heightened Def Con from 7.34658e-005 to 7.34688e-005
Heightened Def Con from 7.34828e-005 to 7.34858e-005
Heightened Def Con from 7.34936e-005 to 7.34976e-005
Heightened Def Con from 7.35104e-005 to 7.35134e-005
Heightened Def Con from 7.35211e-005 to 7.35251e-005
Heightened Def Con from 7.35379e-005 to 7.35409e-005
Heightened Def Con from 7.35484e-005 to 7.35524e-005
Heightened Def Con from 7.35652e-005 to 7.35692e-005
Heightened Def Con from 7.35758e-005 to 7.35798e-005
Heightened Def Con from 7.35922e-005 to 7.35952e-005
Heightened Def Con from 7.36027e-005 to 7.36067e-005
Heightened Def Con from 7.36193e-005 to 7.36233e-005
Heightened Def Con from 7.36299e-005 to 7.36339e-005
Heightened Def Con from 7.36464e-005 to 7.36494e-005
Heightened Def Con from 7.3657e-005 to 7.3661e-005
Heightened Def Con from 7.3674e-005 to 7.3677e-005
Heightened Def Con from 7.37014e-005 to 7.37044e-005
Heightened Def Con from 7.37123e-005 to 7.37163e-005
Heightened Def Con from 7.37291e-005 to 7.37331e-005
Heightened Def Con from 7.37401e-005 to 7.37441e-005
Heightened Def Con from 7.37568e-005 to 7.37598e-005
Heightened Def Con from 7.37674e-005 to 7.37714e-005
Heightened Def Con from 7.37842e-005 to 7.37872e-005
Heightened Def Con from 7.37948e-005 to 7.37988e-005
Heightened Def Con from 7.38116e-005 to 7.38146e-005
Heightened Def Con from 7.38222e-005 to 7.38262e-005
Heightened Def Con from 7.38388e-005 to 7.38418e-005
Heightened Def Con from 7.38496e-005 to 7.38536e-005
Heightened Def Con from 7.38661e-005 to 7.38701e-005
Heightened Def Con from 7.38772e-005 to 7.38802e-005
Heightened Def Con from 7.38937e-005 to 7.38967e-005
Heightened Def Con from 7.39323e-005 to 7.39363e-005
Heightened Def Con from 7.39498e-005 to 7.39528e-005
Heightened Def Con from 7.39607e-005 to 7.39647e-005
Heightened Def Con from 7.39774e-005 to 7.39814e-005
Heightened Def Con from 7.39883e-005 to 7.39923e-005
Heightened Def Con from 7.40049e-005 to 7.40079e-005
Heightened Def Con from 7.40156e-005 to 7.40196e-005
Heightened Def Con from 7.40322e-005 to 7.40352e-005
Heightened Def Con from 7.40429e-005 to 7.40469e-005
Heightened Def Con from 7.40594e-005 to 7.40634e-005
Heightened Def Con from 7.40701e-005 to 7.40741e-005
Heightened Def Con from 7.40866e-005 to 7.40896e-005
Heightened Def Con from 7.4097e-005 to 7.41e-005
Heightened Def Con from 7.41138e-005 to 7.41168e-005
Heightened Def Con from 7.41243e-005 to 7.41283e-005
Heightened Def Con from 7.41408e-005 to 7.41448e-005
Heightened Def Con from 7.41516e-005 to 7.41556e-005
Heightened Def Con from 7.4168e-005 to 7.4172e-005
Heightened Def Con from 7.41788e-005 to 7.41828e-005
Heightened Def Con from 7.41952e-005 to 7.41992e-005
Heightened Def Con from 7.42228e-005 to 7.42258e-005
Heightened Def Con from 7.42337e-005 to 7.42367e-005
Heightened Def Con from 7.42506e-005 to 7.42536e-005
Heightened Def Con from 7.42614e-005 to 7.42644e-005
Heightened Def Con from 7.42782e-005 to 7.42812e-005
Heightened Def Con from 7.42889e-005 to 7.42919e-005
Heightened Def Con from 7.43058e-005 to 7.43088e-005
Heightened Def Con from 7.43165e-005 to 7.43205e-005
Heightened Def Con from 7.43331e-005 to 7.43371e-005
Heightened Def Con from 7.43439e-005 to 7.43479e-005
Heightened Def Con from 7.43603e-005 to 7.43643e-005
Heightened Def Con from 7.4371e-005 to 7.4375e-005
Heightened Def Con from 7.43874e-005 to 7.43904e-005
Heightened Def Con from 7.4398e-005 to 7.4401e-005
Heightened Def Con from 7.44145e-005 to 7.44175e-005
Heightened Def Con from 7.44252e-005 to 7.44282e-005
Heightened Def Con from 7.44417e-005 to 7.44447e-005
Heightened Def Con from 7.44524e-005 to 7.44554e-005
Heightened Def Con from 7.44692e-005 to 7.44722e-005
Heightened Def Con from 7.44798e-005 to 7.44838e-005
Heightened Def Con from 7.44963e-005 to 7.45003e-005
Heightened Def Con from 7.45071e-005 to 7.45111e-005
Heightened Def Con from 7.45235e-005 to 7.45275e-005
Heightened Def Con from 7.45342e-005 to 7.45382e-005
Heightened Def Con from 7.45505e-005 to 7.45535e-005
Heightened Def Con from 7.45611e-005 to 7.45641e-005
Heightened Def Con from 7.45776e-005 to 7.45806e-005
Heightened Def Con from 7.45883e-005 to 7.45913e-005
Heightened Def Con from 7.46051e-005 to 7.46081e-005
Heightened Def Con from 7.46157e-005 to 7.46197e-005
Heightened Def Con from 7.46322e-005 to 7.46362e-005
Heightened Def Con from 7.46431e-005 to 7.46471e-005
Heightened Def Con from 7.46593e-005 to 7.46633e-005
Heightened Def Con from 7.46702e-005 to 7.46742e-005
Heightened Def Con from 7.46865e-005 to 7.46895e-005
Heightened Def Con from 7.46971e-005 to 7.47001e-005
Heightened Def Con from 7.47136e-005 to 7.47166e-005
Heightened Def Con from 7.47244e-005 to 7.47274e-005
Heightened Def Con from 7.47409e-005 to 7.47439e-005
Heightened Def Con from 7.47517e-005 to 7.47547e-005
Heightened Def Con from 7.47683e-005 to 7.47713e-005
Heightened Def Con from 7.47791e-005 to 7.47821e-005
Heightened Def Con from 7.47957e-005 to 7.47997e-005
Heightened Def Con from 7.48065e-005 to 7.48095e-005
Heightened Def Con from 7.48233e-005 to 7.48263e-005
Heightened Def Con from 7.48338e-005 to 7.48368e-005
Heightened Def Con from 7.48506e-005 to 7.48536e-005
Heightened Def Con from 7.48612e-005 to 7.48642e-005
Heightened Def Con from 7.48777e-005 to 7.48817e-005
Heightened Def Con from 7.48888e-005 to 7.48928e-005
Heightened Def Con from 7.49054e-005 to 7.49084e-005
Heightened Def Con from 7.4916e-005 to 7.4919e-005
Heightened Def Con from 7.49325e-005 to 7.49355e-005
Heightened Def Con from 7.49434e-005 to 7.49464e-005
Heightened Def Con from 7.49603e-005 to 7.49633e-005
Heightened Def Con from 7.49882e-005 to 7.49912e-005
Heightened Def Con from 7.49991e-005 to 7.50031e-005
Heightened Def Con from 7.50164e-005 to 7.50194e-005
Heightened Def Con from 7.50271e-005 to 7.50311e-005
Heightened Def Con from 7.50436e-005 to 7.50466e-005
Heightened Def Con from 7.50833e-005 to 7.50873e-005
Heightened Def Con from 7.51002e-005 to 7.51032e-005
Heightened Def Con from 7.51113e-005 to 7.51143e-005
Heightened Def Con from 7.51283e-005 to 7.51313e-005
Heightened Def Con from 7.51391e-005 to 7.51421e-005
Heightened Def Con from 7.51557e-005 to 7.51587e-005
Heightened Def Con from 7.51666e-005 to 7.51696e-005
Heightened Def Con from 7.51833e-005 to 7.51863e-005
Heightened Def Con from 7.5194e-005 to 7.5197e-005
Heightened Def Con from 7.52107e-005 to 7.52137e-005
[...]
Heightened Def Con from 0.0013931 to 0.0013931
Heightened Def Con from 0.00139314 to 0.00139315
Heightened Def Con from 0.00139315 to 0.00139316
Heightened Def Con from 0.00139318 to 0.00139319
Heightened Def Con from 0.00139352 to 0.00139352
Heightened Def Con from 0.00139398 to 0.00139398
Heightened Def Con from 0.00139417 to 0.00139418
Heightened Def Con from 0.00139454 to 0.00139455
Heightened Def Con from 0.00139479 to 0.0013948
Heightened Def Con from 0.00139557 to 0.00139557
Heightened Def Con from 0.00139576 to 0.00139576
Heightened Def Con from 0.00139577 to 0.00139578
Heightened Def Con from 0.00139587 to 0.00139588
Heightened Def Con from 0.00139601 to 0.00139601
Heightened Def Con from 0.00139605 to 0.00139606
Heightened Def Con from 0.0013961 to 0.0013961
Heightened Def Con from 0.00139612 to 0.00139613
Heightened Def Con from 0.00139634 to 0.00139635
Heightened Def Con from 0.0013964 to 0.0013964
Heightened Def Con from 0.00139642 to 0.00139642
Heightened Def Con from 0.00139649 to 0.00139649
Heightened Def Con from 0.0013965 to 0.00139651
Heightened Def Con from 0.00139656 to 0.00139656
Heightened Def Con from 0.00139659 to 0.00139659
Heightened Def Con from 0.00139685 to 0.00139685
Heightened Def Con from 0.00139686 to 0.00139687
Heightened Def Con from 0.00139689 to 0.0013969
Heightened Def Con from 0.00139692 to 0.00139692
Heightened Def Con from 0.00139698 to 0.00139698
Heightened Def Con from 0.00139702 to 0.00139703
Heightened Def Con from 0.00139706 to 0.00139707
Heightened Def Con from 0.00139715 to 0.00139716
Heightened Def Con from 0.00139718 to 0.00139718
Heightened Def Con from 0.00139727 to 0.00139727
Heightened Def Con from 0.0013974 to 0.00139741
Heightened Def Con from 0.00139746 to 0.00139746
Heightened Def Con from 0.00139749 to 0.00139749
Heightened Def Con from 0.0013975 to 0.00139751
Heightened Def Con from 0.00139751 to 0.00139751
Heightened Def Con from 0.00139763 to 0.00139763
Heightened Def Con from 0.00140198 to 0.00140198
Heightened Def Con from 0.00140199 to 0.00140199
Heightened Def Con from 0.001402 to 0.00140201
Heightened Def Con from 0.00140202 to 0.00140202
Heightened Def Con from 0.00140203 to 0.00140203
Heightened Def Con from 0.00140204 to 0.00140205
Heightened Def Con from 0.00140206 to 0.00140206
Heightened Def Con from 0.00140207 to 0.00140208
Heightened Def Con from 0.00140209 to 0.00140209
Heightened Def Con from 0.0014021 to 0.0014021
Heightened Def Con from 0.00140212 to 0.00140212
Heightened Def Con from 0.00140213 to 0.00140213
Heightened Def Con from 0.00140217 to 0.00140217
Heightened Def Con from 0.00140218 to 0.00140219
Heightened Def Con from 0.0014022 to 0.0014022
Heightened Def Con from 0.00140221 to 0.00140222
Heightened Def Con from 0.00140223 to 0.00140223
Heightened Def Con from 0.00140224 to 0.00140224
Heightened Def Con from 0.00140225 to 0.00140226
Heightened Def Con from 0.00140228 to 0.00140229
Heightened Def Con from 0.00140231 to 0.00140231
Heightened Def Con from 0.00140234 to 0.00140234
Heightened Def Con from 0.00140235 to 0.00140236
Heightened Def Con from 0.00140237 to 0.00140237
Heightened Def Con from 0.0014024 to 0.0014024
Heightened Def Con from 0.00140241 to 0.00140241
Heightened Def Con from 0.00140242 to 0.00140243
Heightened Def Con from 0.00140244 to 0.00140244
Heightened Def Con from 0.00140245 to 0.00140246
Heightened Def Con from 0.00140246 to 0.00140247
Heightened Def Con from 0.00140248 to 0.00140248
Heightened Def Con from 0.00140251 to 0.00140251
Heightened Def Con from 0.00140255 to 0.00140255
Heightened Def Con from 0.00140257 to 0.00140257
Heightened Def Con from 0.00140259 to 0.0014026
Heightened Def Con from 0.00140261 to 0.00140261
Heightened Def Con from 0.00140262 to 0.00140263
Heightened Def Con from 0.00140263 to 0.00140264
Heightened Def Con from 0.00140266 to 0.00140267
Heightened Def Con from 0.00140268 to 0.00140268
Heightened Def Con from 0.00140269 to 0.00140269
Heightened Def Con from 0.00140271 to 0.00140271
Heightened Def Con from 0.00140273 to 0.00140274
Heightened Def Con from 0.00140275 to 0.00140275
Heightened Def Con from 0.00140276 to 0.00140276
Heightened Def Con from 0.0014028 to 0.00140281
Heightened Def Con from 0.00140282 to 0.00140282
Heightened Def Con from 0.00140285 to 0.00140285
Heightened Def Con from 0.00140289 to 0.00140289
Heightened Def Con from 0.0014029 to 0.00140291
Heightened Def Con from 0.00140293 to 0.00140294
Heightened Def Con from 0.00140295 to 0.00140295
Heightened Def Con from 0.00140296 to 0.00140296
Heightened Def Con from 0.00140299 to 0.00140299
Heightened Def Con from 0.00140302 to 0.00140302
Heightened Def Con from 0.00140303 to 0.00140303
Heightened Def Con from 0.00140307 to 0.00140308
Heightened Def Con from 0.00140309 to 0.00140309
Heightened Def Con from 0.00140319 to 0.00140319
Heightened Def Con from 0.00140326 to 0.00140327
Heightened Def Con from 0.00140328 to 0.00140328
Heightened Def Con from 0.00140331 to 0.00140331
Heightened Def Con from 0.00140334 to 0.00140334
Heightened Def Con from 0.00140335 to 0.00140335
Heightened Def Con from 0.00140339 to 0.0014034
Heightened Def Con from 0.00140342 to 0.00140342
Heightened Def Con from 0.00140346 to 0.00140347
Heightened Def Con from 0.00140348 to 0.00140348
Heightened Def Con from 0.0014036 to 0.0014036
Heightened Def Con from 0.00140362 to 0.00140363
Heightened Def Con from 0.00141124 to 0.00141125
Heightened Def Con from 0.00141182 to 0.00141182
Heightened Def Con from 0.00141244 to 0.00141245
Heightened Def Con from 0.00141251 to 0.00141252
Heightened Def Con from 0.00141265 to 0.00141265
Heightened Def Con from 0.00141266 to 0.00141266
Heightened Def Con from 0.00141276 to 0.00141277
Heightened Def Con from 0.00141278 to 0.00141278
Heightened Def Con from 0.00141304 to 0.00141305
Heightened Def Con from 0.00141312 to 0.00141312
Heightened Def Con from 0.00141314 to 0.00141315
Heightened Def Con from 0.00141328 to 0.00141328
Heightened Def Con from 0.00141347 to 0.00141347
Heightened Def Con from 0.0014139 to 0.0014139
Heightened Def Con from 0.00141401 to 0.00141402
Heightened Def Con from 0.00141403 to 0.00141403
Heightened Def Con from 0.00141415 to 0.00141415
Heightened Def Con from 0.00141459 to 0.00141459
Heightened Def Con from 0.0014146 to 0.0014146
Heightened Def Con from 0.00141478 to 0.00141478
Heightened Def Con from 0.00141519 to 0.00141519
Heightened Def Con from 0.00141555 to 0.00141556
Heightened Def Con from 0.00141557 to 0.00141558
Heightened Def Con from 0.0014157 to 0.00141571
Heightened Def Con from 0.00141607 to 0.00141608
Heightened Def Con from 0.00141619 to 0.0014162
Heightened Def Con from 0.00141624 to 0.00141625
Heightened Def Con from 0.00141635 to 0.00141635
Heightened Def Con from 0.00141637 to 0.00141637
Heightened Def Con from 0.00141639 to 0.0014164
Heightened Def Con from 0.00141644 to 0.00141644
Heightened Def Con from 0.00141647 to 0.00141647
Heightened Def Con from 0.00141662 to 0.00141663
Heightened Def Con from 0.0014167 to 0.0014167
Heightened Def Con from 0.00141673 to 0.00141673
Heightened Def Con from 0.00141684 to 0.00141685
Heightened Def Con from 0.00141698 to 0.00141698
Heightened Def Con from 0.00141701 to 0.00141701
Heightened Def Con from 0.00141712 to 0.00141713
Heightened Def Con from 0.00141714 to 0.00141714
Heightened Def Con from 0.00141717 to 0.00141717
Heightened Def Con from 0.0014172 to 0.00141721
Heightened Def Con from 0.00141721 to 0.00141722
Heightened Def Con from 0.00141732 to 0.00141733
Heightened Def Con from 0.00141734 to 0.00141734
Heightened Def Con from 0.00141741 to 0.00141741
Heightened Def Con from 0.00141762 to 0.00141762
Heightened Def Con from 0.00141765 to 0.00141765
Heightened Def Con from 0.00141769 to 0.0014177
Heightened Def Con from 0.00142196 to 0.00142196
Heightened Def Con from 0.00142197 to 0.00142198
Heightened Def Con from 0.00142199 to 0.00142199
Heightened Def Con from 0.001422 to 0.00142201
Heightened Def Con from 0.00142202 to 0.00142202
Heightened Def Con from 0.00142203 to 0.00142203
Heightened Def Con from 0.00142204 to 0.00142205
Heightened Def Con from 0.00142207 to 0.00142208
Heightened Def Con from 0.00142209 to 0.00142209
Heightened Def Con from 0.0014221 to 0.0014221
Heightened Def Con from 0.00142213 to 0.00142213
Heightened Def Con from 0.00142214 to 0.00142215
Heightened Def Con from 0.00142216 to 0.00142216
Heightened Def Con from 0.00142217 to 0.00142218
Heightened Def Con from 0.00142218 to 0.00142219
Heightened Def Con from 0.0014222 to 0.0014222
Heightened Def Con from 0.00142221 to 0.00142221
Heightened Def Con from 0.00142222 to 0.00142223
Heightened Def Con from 0.00142224 to 0.00142224
Heightened Def Con from 0.00142225 to 0.00142226
Heightened Def Con from 0.00142226 to 0.00142227
Heightened Def Con from 0.00142228 to 0.00142228
Heightened Def Con from 0.00142229 to 0.0014223
Heightened Def Con from 0.00142231 to 0.00142231
Heightened Def Con from 0.00142233 to 0.00142234
Heightened Def Con from 0.00142236 to 0.00142237
Heightened Def Con from 0.00142239 to 0.00142239
Heightened Def Con from 0.00142242 to 0.00142242
Heightened Def Con from 0.00142243 to 0.00142244
Heightened Def Con from 0.00142245 to 0.00142245
Heightened Def Con from 0.00142246 to 0.00142246
Heightened Def Con from 0.00142247 to 0.00142248
Heightened Def Con from 0.00142249 to 0.00142249
Heightened Def Con from 0.0014225 to 0.00142251
Heightened Def Con from 0.00142251 to 0.00142252
Heightened Def Con from 0.00142253 to 0.00142253
Heightened Def Con from 0.00142254 to 0.00142254
Heightened Def Con from 0.00142255 to 0.00142256
Heightened Def Con from 0.00142257 to 0.00142257
Heightened Def Con from 0.00142258 to 0.00142259
Heightened Def Con from 0.00142259 to 0.0014226
Heightened Def Con from 0.00142261 to 0.00142261
Heightened Def Con from 0.00142262 to 0.00142263
Heightened Def Con from 0.00142267 to 0.00142267
Heightened Def Con from 0.00142268 to 0.00142268
Heightened Def Con from 0.00142269 to 0.0014227
Heightened Def Con from 0.00142273 to 0.00142274
Heightened Def Con from 0.00142275 to 0.00142275
Heightened Def Con from 0.00142276 to 0.00142277
Heightened Def Con from 0.00142278 to 0.00142278
Heightened Def Con from 0.00142279 to 0.00142279
Heightened Def Con from 0.00142283 to 0.00142284
Heightened Def Con from 0.00142288 to 0.00142288
Heightened Def Con from 0.0014229 to 0.00142291
Heightened Def Con from 0.00142292 to 0.00142292
Heightened Def Con from 0.00142295 to 0.00142295
Heightened Def Con from 0.00142296 to 0.00142297
Heightened Def Con from 0.00142301 to 0.00142301
Heightened Def Con from 0.00142304 to 0.00142304
Heightened Def Con from 0.00142306 to 0.00142307
Heightened Def Con from 0.00142309 to 0.0014231
Heightened Def Con from 0.00142318 to 0.00142318
Heightened Def Con from 0.00142319 to 0.0014232
Heightened Def Con from 0.00142324 to 0.00142324
Heightened Def Con from 0.00142325 to 0.00142325
Heightened Def Con from 0.00142327 to 0.00142327
Heightened Def Con from 0.00142329 to 0.0014233
Heightened Def Con from 0.00142334 to 0.00142334
Heightened Def Con from 0.00142338 to 0.00142338
Heightened Def Con from 0.00142344 to 0.00142344
Heightened Def Con from 0.00142356 to 0.00142356
Heightened Def Con from 0.00142463 to 0.00142463
Heightened Def Con from 0.00142685 to 0.00142686
Heightened Def Con from 0.0014317 to 0.0014317
Heightened Def Con from 0.00143247 to 0.00143247
Heightened Def Con from 0.00143256 to 0.00143256
Heightened Def Con from 0.00143261 to 0.00143261
Heightened Def Con from 0.00143279 to 0.0014328
Heightened Def Con from 0.00143287 to 0.00143287
Heightened Def Con from 0.00143293 to 0.00143293
Heightened Def Con from 0.00143297 to 0.00143297
Heightened Def Con from 0.001433 to 0.001433
Heightened Def Con from 0.00143304 to 0.00143305
Heightened Def Con from 0.00143306 to 0.00143306
Heightened Def Con from 0.00143351 to 0.00143352
Heightened Def Con from 0.00143354 to 0.00143355
Heightened Def Con from 0.00143369 to 0.00143369
Heightened Def Con from 0.00143372 to 0.00143372
Heightened Def Con from 0.00143377 to 0.00143378
Heightened Def Con from 0.00143414 to 0.00143415
Heightened Def Con from 0.00143423 to 0.00143424
Heightened Def Con from 0.00143477 to 0.00143477
Heightened Def Con from 0.00143509 to 0.00143509
Heightened Def Con from 0.0014352 to 0.0014352
Heightened Def Con from 0.00143528 to 0.00143528
Heightened Def Con from 0.00143546 to 0.00143546
Heightened Def Con from 0.00143553 to 0.00143554
Heightened Def Con from 0.00143571 to 0.00143571
Heightened Def Con from 0.00143581 to 0.00143582
Heightened Def Con from 0.00143642 to 0.00143642
Heightened Def Con from 0.00143643 to 0.00143644
Heightened Def Con from 0.00143665 to 0.00143666
Heightened Def Con from 0.00143667 to 0.00143667
Heightened Def Con from 0.00143677 to 0.00143678
Heightened Def Con from 0.00143679 to 0.00143679
Heightened Def Con from 0.00143683 to 0.00143683
Heightened Def Con from 0.00143684 to 0.00143684
Heightened Def Con from 0.00143688 to 0.00143689
Heightened Def Con from 0.00143708 to 0.00143708
Heightened Def Con from 0.00143712 to 0.00143712
Heightened Def Con from 0.00143713 to 0.00143714
Heightened Def Con from 0.00143725 to 0.00143725
Heightened Def Con from 0.00143737 to 0.00143737
Heightened Def Con from 0.00143744 to 0.00143744
Heightened Def Con from 0.00143749 to 0.00143749
Heightened Def Con from 0.00143752 to 0.00143752
Heightened Def Con from 0.00143753 to 0.00143753
Heightened Def Con from 0.00143759 to 0.00143759
Heightened Def Con from 0.00143765 to 0.00143765
Heightened Def Con from 0.00143766 to 0.00143766
Heightened Def Con from 0.00143769 to 0.00143769
Heightened Def Con from 0.00144202 to 0.00144202
Heightened Def Con from 0.00144203 to 0.00144204
Heightened Def Con from 0.00144205 to 0.00144205
Heightened Def Con from 0.00144206 to 0.00144206
Heightened Def Con from 0.00144207 to 0.00144208
Heightened Def Con from 0.00144209 to 0.00144209
Heightened Def Con from 0.0014421 to 0.00144211
Heightened Def Con from 0.00144211 to 0.00144212
Heightened Def Con from 0.00144213 to 0.00144213
Heightened Def Con from 0.00144214 to 0.00144215
Heightened Def Con from 0.00144215 to 0.00144216
Heightened Def Con from 0.00144218 to 0.00144219
Heightened Def Con from 0.0014422 to 0.0014422
Heightened Def Con from 0.00144221 to 0.00144221
Heightened Def Con from 0.00144222 to 0.00144223
Heightened Def Con from 0.00144224 to 0.00144224
Heightened Def Con from 0.00144225 to 0.00144225
Heightened Def Con from 0.00144226 to 0.00144227
Heightened Def Con from 0.00144228 to 0.00144228
Heightened Def Con from 0.00144229 to 0.00144229
Heightened Def Con from 0.00144231 to 0.00144231
Heightened Def Con from 0.00144232 to 0.00144232
Heightened Def Con from 0.00144233 to 0.00144234
Heightened Def Con from 0.00144234 to 0.00144235
Heightened Def Con from 0.00144236 to 0.00144236
Heightened Def Con from 0.00144239 to 0.00144239
Heightened Def Con from 0.0014424 to 0.0014424
Heightened Def Con from 0.00144243 to 0.00144243
Heightened Def Con from 0.00144244 to 0.00144245
Heightened Def Con from 0.00144245 to 0.00144246
Heightened Def Con from 0.00144247 to 0.00144247
Heightened Def Con from 0.00144248 to 0.00144249
Heightened Def Con from 0.0014425 to 0.0014425
Heightened Def Con from 0.00144251 to 0.00144251
Heightened Def Con from 0.00144253 to 0.00144253
Heightened Def Con from 0.00144254 to 0.00144254
Heightened Def Con from 0.00144255 to 0.00144256
Heightened Def Con from 0.00144258 to 0.00144258
Heightened Def Con from 0.00144259 to 0.0014426
Heightened Def Con from 0.00144262 to 0.00144263
Heightened Def Con from 0.00144264 to 0.00144264
Heightened Def Con from 0.00144265 to 0.00144265
Heightened Def Con from 0.00144266 to 0.00144267
Heightened Def Con from 0.00144268 to 0.00144268
Heightened Def Con from 0.00144269 to 0.0014427
Heightened Def Con from 0.0014427 to 0.00144271
Heightened Def Con from 0.00144272 to 0.00144272
Heightened Def Con from 0.00144273 to 0.00144274
Heightened Def Con from 0.00144276 to 0.00144276
Heightened Def Con from 0.00144277 to 0.00144278
Heightened Def Con from 0.0014428 to 0.00144281
Heightened Def Con from 0.00144282 to 0.00144282
Heightened Def Con from 0.00144283 to 0.00144283
Heightened Def Con from 0.00144286 to 0.00144286
Heightened Def Con from 0.00144287 to 0.00144288
Heightened Def Con from 0.00144289 to 0.00144289
Heightened Def Con from 0.00144291 to 0.00144292
Heightened Def Con from 0.00144293 to 0.00144293
Heightened Def Con from 0.00144294 to 0.00144295
Heightened Def Con from 0.00144297 to 0.00144297
Heightened Def Con from 0.001443 to 0.001443
Heightened Def Con from 0.00144301 to 0.00144302
Heightened Def Con from 0.00144303 to 0.00144303
Heightened Def Con from 0.00144304 to 0.00144304
Heightened Def Con from 0.00144305 to 0.00144306
Heightened Def Con from 0.00144307 to 0.00144307
Heightened Def Con from 0.00144308 to 0.00144309
Heightened Def Con from 0.00144323 to 0.00144323
Heightened Def Con from 0.00144327 to 0.00144327
Heightened Def Con from 0.0014433 to 0.0014433
Heightened Def Con from 0.00144334 to 0.00144335
Heightened Def Con from 0.00144337 to 0.00144338
Heightened Def Con from 0.0014434 to 0.0014434
Heightened Def Con from 0.00144341 to 0.00144342
Heightened Def Con from 0.00144349 to 0.00144349
Heightened Def Con from 0.00144352 to 0.00144352
Heightened Def Con from 0.00144356 to 0.00144356
Heightened Def Con from 0.00144358 to 0.00144358
Heightened Def Con from 0.00144359 to 0.00144359
Heightened Def Con from 0.0014436 to 0.00144361
Heightened Def Con from 0.0014437 to 0.00144371
Heightened Def Con from 0.00144373 to 0.00144374
Heightened Def Con from 0.00144375 to 0.00144375
Heightened Def Con from 0.0014471 to 0.00144711
Heightened Def Con from 0.00145112 to 0.00145112
Heightened Def Con from 0.00145226 to 0.00145227
Heightened Def Con from 0.00145267 to 0.00145268
Heightened Def Con from 0.00145269 to 0.00145269
Heightened Def Con from 0.00145272 to 0.00145272
Heightened Def Con from 0.00145277 to 0.00145278
Heightened Def Con from 0.00145286 to 0.00145286
Heightened Def Con from 0.00145293 to 0.00145294
Heightened Def Con from 0.00145302 to 0.00145302
Heightened Def Con from 0.00145308 to 0.00145308
Heightened Def Con from 0.00145309 to 0.0014531
Heightened Def Con from 0.0014533 to 0.0014533
Heightened Def Con from 0.0014534 to 0.00145341
Heightened Def Con from 0.00145347 to 0.00145348
Heightened Def Con from 0.00145359 to 0.0014536
Heightened Def Con from 0.00145365 to 0.00145365
Heightened Def Con from 0.00145378 to 0.00145379
Heightened Def Con from 0.00145411 to 0.00145411
Heightened Def Con from 0.00145433 to 0.00145433
Heightened Def Con from 0.00145473 to 0.00145473
Heightened Def Con from 0.00145489 to 0.00145489
Heightened Def Con from 0.00145495 to 0.00145495
Heightened Def Con from 0.00145511 to 0.00145511
Heightened Def Con from 0.00145542 to 0.00145542
Heightened Def Con from 0.00145554 to 0.00145554
Heightened Def Con from 0.00145565 to 0.00145566
Heightened Def Con from 0.00145591 to 0.00145591
Heightened Def Con from 0.00145631 to 0.00145631
Heightened Def Con from 0.00145659 to 0.00145659
Heightened Def Con from 0.00145663 to 0.00145663
Heightened Def Con from 0.00145679 to 0.0014568
Heightened Def Con from 0.00145689 to 0.00145689
Heightened Def Con from 0.00145694 to 0.00145694
Heightened Def Con from 0.00145718 to 0.00145719
Heightened Def Con from 0.0014572 to 0.0014572
Heightened Def Con from 0.00145727 to 0.00145727

Date: Fri Jun 16 10:01:36 2023
Total elapsed time: 67342.165 seconds.

tnom = 27
temp = 27
method = modified trap
totiter = 47759086
traniter = 47758527
tranpoints = 10725823
accept = 7609589
rejected = 3137662
matrix size = 365
fillins = 431
solver = Normal
Thread vector: 89.8/55.6[8] 32.8/18.8[8] 64.2/19.3[8] 2.7/8.7[1]  2592/500
Matrix Compiler1: 26.66 KB object code size  34.0/18.4/[8.2]
Matrix Compiler2: 30.82 KB object code size  21.8/31.7/[5.4]

