Circuit: * C:\Users\simo2\OneDrive - Danmarks Tekniske Universitet\Dokumenter\GitHub\ee-projekt\Calculations\BuckBoost_converter_sim\BuckBoost_P-Channel-v2switch.asc

Limiting fall time of source v3 to 2e-006
Limiting rise time of source v2 to 3.6e-007
Limiting fall time of source v2 to 3.6e-007
WARNING: Less than two connections to node NC_01.  This node is used by Q1.
Direct Newton iteration for .op point succeeded.

Date: Thu Jun 15 15:52:18 2023
Total elapsed time: 24.965 seconds.

tnom = 27
temp = 27
method = modified trap
totiter = 1246534
traniter = 1246501
tranpoints = 404110
accept = 297512
rejected = 106598
matrix size = 33
fillins = 13
solver = Normal
Matrix Compiler1: 2.49 KB object code size  1.3/1.0/[0.5]
Matrix Compiler2: 2.79 KB object code size  0.7/1.4/[0.5]

