Circuit: * C:\Users\Simon\Documents\GitHub\ee-projekt\Calculations\BuckBoost_converter_sim\BuckBoost_P-Channel-v2switch.asc

Warning: Multiple definitions of model "2scr375p" Type: BJT
Warning: Multiple definitions of model "bc857b" Type: BJT
Warning: Multiple definitions of model "bc557c" Type: BJT
Warning: Multiple definitions of model "bc557b" Type: BJT
Warning: Multiple definitions of model "bc847c" Type: BJT
Warning: Multiple definitions of model "bc847b" Type: BJT
Warning: Multiple definitions of model "bc547c" Type: BJT
Warning: Multiple definitions of model "bc547b" Type: BJT
Error on line 1218 : .model bc547b npn bf=500 ne=1.3 ise=9.72f ikf=80m is=20f vaf=50 ikr=12m  br=10 nc=2 var=10 rb=280 re=1 rc=40 vje=.48 tr=.3u tf=.5n cje=12p vje=.48 mje=.5 cjc=6p vjc=.7 mjc:.33 isc=47p kf=2f
	* Unrecognized parameter "mjc:.33" -- ignored
Error on line 1217 : .model bc547a npn bf=400 ne=1.3 ise=10.3f ikf=50m is=10f vaf=80 ikr=12m  br=9.5 nc=2 var=10 rb=280 re=1 rc=40 vje=.48 tr=.3u tf=.5n cje=12p vje=.48 mje=.5 cjc=6p vjc=.7 mjc:.33 isc=47p kf=2f
	* Unrecognized parameter "mjc:.33" -- ignored
Limiting rise time of source v3 to 3.6e-007
Limiting fall time of source v3 to 3.6e-007
Limiting rise time of source v2 to 3.6e-007
Limiting fall time of source v2 to 3.6e-007
WARNING: Less than two connections to node NC_01.  This node is used by Q1.
Direct Newton iteration for .op point succeeded.
Changing Tseed to 9.76562e-010

Date: Wed Jun 14 11:26:58 2023
Total elapsed time: 4.695 seconds.

tnom = 27
temp = 27
method = modified trap
totiter = 439640
traniter = 439601
tranpoints = 145932
accept = 107186
rejected = 38745
matrix size = 32
fillins = 9
solver = Normal
Matrix Compiler1: 2.18 KB object code size  0.9/0.6/[0.3]
Matrix Compiler2: off  [0.5]/0.9/1.2

