Circuit: * C:\Users\simo2\OneDrive - Danmarks Tekniske Universitet\Dokumenter\GitHub\ee-projekt\Calculations\BuckBoost_converter_sim\BuckBoost_P-Channel-v2switch.asc

Limiting rise time of source v3 to 3.6e-007
Limiting fall time of source v3 to 3.6e-007
Limiting rise time of source v2 to 3.6e-007
Limiting fall time of source v2 to 3.6e-007
WARNING: Less than two connections to node NC_01.  This node is used by Q1.
Direct Newton iteration for .op point succeeded.

Date: Wed Jun 14 14:27:49 2023
Total elapsed time: 8.195 seconds.

tnom = 27
temp = 27
method = modified trap
totiter = 1055342
traniter = 1055309
tranpoints = 361464
accept = 258961
rejected = 102503
matrix size = 33
fillins = 9
solver = Normal
Matrix Compiler1: 2.22 KB object code size  1.2/1.0/[0.5]
Matrix Compiler2: 2.74 KB object code size  0.7/1.3/[0.6]

