Circuit: * C:\Users\simo2\OneDrive - Danmarks Tekniske Universitet\Dokumenter\GitHub\ee-projekt\Calculations\BuckBoost_converter_sim\BuckBoost_P-Channel-v2switch_+analogkontrolv2.asc

Limiting rise time of source v4 to 1e-006
Limiting fall time of source v4 to 1e-006
Direct Newton iteration failed to find .op point.  (Use ".option noopiter" to skip.)
Starting Gmin stepping
Gmin = 10
Gmin = 1.07374
Gmin = 0.115292
Gmin = 0.0123794
Gmin = 0.00132923
Gmin = 0.000142725
Gmin = 1.5325e-005
vernier = 0.5
vernier = 0.25
vernier = 0.125
vernier = 0.0625
vernier = 0.03125
vernier = 0.015625
vernier = 0.0078125
vernier = 0.00390625
vernier = 0.00195313
vernier = 0.000976563
Gmin = 1.91562e-005
vernier = 0.000488281
Gmin = 0
Gmin stepping failed

Starting source stepping with srcstepmethod=0
Source Step = 3.0303%
Source Step = 33.3333%
Source Step = 63.6364%
Source Step = 74.2424%
Source Step = 76.1364%
Source Step = 78.0303%
Source Step = 79.9242%
Source Step = 81.8182%
vernier = 0.09375
Source Step = 83.9962%
Source Step = 86.8371%
Source Step = 89.678%
Source Step = 92.5189%
Source Step = 95.3598%
vernier = 0.140625
Source Step = 98.4848%
Source stepping succeeded in finding the operating point.

Heightened Def Con from 2.61432e-009 to 4.61432e-009
Heightened Def Con from 0.00305662 to 0.00305662
Heightened Def Con from 0.00305691 to 0.00305691
Heightened Def Con from 0.00305693 to 0.00305693

Date: Thu Jun 15 14:34:13 2023
Total elapsed time: 51.992 seconds.

tnom = 27
temp = 27
method = modified trap
totiter = 300750
traniter = 298258
tranpoints = 100893
accept = 74040
rejected = 26857
matrix size = 366
fillins = 418
solver = Normal
Thread vector: 83.2/41.6[8] 44.9/26.7[8] 61.5/30.5[8] 2.7/99.3[1]  2592/500
Matrix Compiler1: 24.89 KB object code size  33.1/20.2/[8.3]
Matrix Compiler2: 30.94 KB object code size  22.6/32.6/[5.2]

