Circuit: * C:\Users\Simon\Documents\GitHub\ee-projekt\Calculations\BuckBoost_converter_sim\Draft1.asc

Warning: Multiple definitions of model "2scr375p" Type: BJT
Warning: Multiple definitions of model "bc857b" Type: BJT
Warning: Multiple definitions of model "bc557c" Type: BJT
Warning: Multiple definitions of model "bc557b" Type: BJT
Warning: Multiple definitions of model "bc847c" Type: BJT
Warning: Multiple definitions of model "bc847b" Type: BJT
Warning: Multiple definitions of model "bc547c" Type: BJT
Warning: Multiple definitions of model "bc547b" Type: BJT
Error on line 1221 : .model bc547a npn bf=400 ne=1.3 ise=10.3f ikf=50m is=10f vaf=80 ikr=12m  br=9.5 nc=2 var=10 rb=280 re=1 rc=40 vje=.48 tr=.3u tf=.5n cje=12p vje=.48 mje=.5 cjc=6p vjc=.7 mjc:.33 isc=47p kf=2f
	* Unrecognized parameter "mjc:.33" -- ignored
Direct Newton iteration failed to find .op point.  (Use ".option noopiter" to skip.)
Starting Gmin stepping
Gmin = 10
Gmin = 1.07374
Gmin = 0.115292
Gmin = 0.0123794
Gmin = 0.00132923
Gmin = 0.000142725
Gmin = 1.5325e-005
Gmin = 1.6455e-006
Gmin = 1.76685e-007
Gmin = 1.89714e-008
Gmin = 2.03704e-009
Gmin = 2.18725e-010
Gmin = 2.34854e-011
Gmin = 2.52173e-012
Gmin = 2.70769e-013
Gmin = 0
Gmin stepping succeeded in finding the operating point.


Date: Mon Jun 19 00:27:57 2023
Total elapsed time: 0.289 seconds.

tnom = 27
temp = 27
method = modified trap
totiter = 11061
traniter = 10698
tranpoints = 2696
accept = 2059
rejected = 637
matrix size = 34
fillins = 29
solver = Normal
Matrix Compiler1: 4.23 KB object code size  1.3/1.2/[0.4]
Matrix Compiler2: off  [0.8]/1.1/1.5

