Circuit: * C:\Users\PC-xx\Documents\GitHub\ee-projekt\Calculations\3p ensretter.asc

Direct Newton iteration for .op point succeeded.

Date: Mon Jun 19 14:57:12 2023
Total elapsed time: 0.321 seconds.

tnom = 27
temp = 27
method = modified trap
totiter = 108181
traniter = 108169
tranpoints = 39591
accept = 29209
rejected = 10382
matrix size = 14
fillins = 0
solver = Normal
Matrix Compiler1:      29 opcodes  0.1/[0.1]/0.1
Matrix Compiler2: off  [0.1]/0.1/0.1

