Circuit: * C:\Users\PC-mainxx\Documents\GitHub\ee-projekt\Calculations\3p ensretter.asc

Direct Newton iteration for .op point succeeded.

Date: Tue Jun 20 11:58:37 2023
Total elapsed time: 0.507 seconds.

tnom = 27
temp = 27
method = modified trap
totiter = 146582
traniter = 146569
tranpoints = 51442
accept = 40223
rejected = 11219
matrix size = 15
fillins = 13
solver = Normal
Avg thread counts: 1.0/1.0/1.0/1.0
Matrix Compiler1: 1.13 KB object code size  0.4/0.3/[0.2]
Matrix Compiler2: 1.26 KB object code size  0.1/0.3/[0.1]

