Circuit: * C:\Users\PC-mainxx\Documents\GitHub\ee-projekt\Calculations\3p ensretter.asc

Direct Newton iteration for .op point succeeded.

Date: Tue Jun 20 10:48:38 2023
Total elapsed time: 0.453 seconds.

tnom = 27
temp = 27
method = modified trap
totiter = 106018
traniter = 106004
tranpoints = 38886
accept = 28650
rejected = 10236
matrix size = 14
fillins = 0
solver = Normal
Avg thread counts: 1.0/1.0/1.0/1.0
Matrix Compiler1: 510 bytes object code size  0.2/0.2/[0.1]
Matrix Compiler2: 932 bytes object code size  0.1/0.2/[0.1]

