Circuit: * C:\Users\PC-xx\Documents\GitHub\ee-projekt\Calculations\Boost Coverter.asc

Limiting rise time of source v2 to 3.095e-007
Limiting fall time of source v2 to 3.095e-007
Direct Newton iteration for .op point succeeded.
Heightened Def Con from 8.75e-005 to 8.75e-005
Heightened Def Con from 0.00031875 to 0.000318753
Heightened Def Con from 0.00039375 to 0.000393753
Heightened Def Con from 0.00043125 to 0.00043125
Heightened Def Con from 0.00043125 ++++++++++++++++to 0.00043125
Heightened Def Con from 0.00043125 to 0.000431253
Heightened Def Con from 0.0005375 to 0.0005375
Heightened Def Con from 0.0005375 ++++++to 0.0005375
Heightened Def Con from 0.00054375 to 0.000543753
Heightened Def Con from 0.00055 +++++++++++++++to 0.00055
Heightened Def Con from 0.00055 to 0.000550003
Heightened Def Con from 0.00055625 to 0.000556253
Heightened Def Con from 0.00058125 to 0.000581253
Heightened Def Con from 0.0006125 to 0.000612503
Heightened Def Con from 0.0006625 to 0.000662503
Heightened Def Con from 0.00073125 to 0.000731253
Heightened Def Con from 0.00075 to 0.000750003
Heightened Def Con from 0.00076875 to 0.00076875
Heightened Def Con from 0.00076875 to 0.000768753
Heightened Def Con from 0.00078125 +++++++++++to 0.00078125
Heightened Def Con from 0.00081875 to 0.000818753
Heightened Def Con from 0.000825 to 0.000825
Heightened Def Con from 0.0008875 to 0.000887503

Date: Mon Jun 12 14:10:46 2023
Total elapsed time: 11.687 seconds.

tnom = 27
temp = 27
method = modified trap
totiter = 2387212
traniter = 2387207
tranpoints = 1008715
accept = 1006663
rejected = 2123
matrix size = 11
fillins = 1
solver = Normal
Matrix Compiler1:      29 opcodes  0.1/[0.1]/0.1
Matrix Compiler2: off  [0.1]/0.1/0.1

